<?xml version="1.0" encoding="UTF-8"?>

<!-- generated on 2025-02-11 12:22:29 by Eclipse SUMO duarouter Version 1.12.0
<configuration xmlns:xsi="http://www.w3.org/2001/XMLSchema-instance" xsi:noNamespaceSchemaLocation="http://sumo.dlr.de/xsd/duarouterConfiguration.xsd">

    <input>
        <net-file value="Town05.net.xml"/>
        <route-files value="trips.trips.xml"/>
    </input>

    <output>
        <output-file value="Town05.rou.xml"/>
        <alternatives-output value="Town05.rou.alt.xml"/>
    </output>

    <time>
        <begin value="0"/>
        <end value="600"/>
    </time>

    <report>
        <no-warnings value="true"/>
        <ignore-errors value="true"/>
        <no-step-log value="true"/>
    </report>

</configuration>
-->

<routes xmlns:xsi="http://www.w3.org/2001/XMLSchema-instance" xsi:noNamespaceSchemaLocation="http://sumo.dlr.de/xsd/routes_file.xsd">
    <vType id="passenger" vClass="passenger"/>
    <vehicle id="0" type="vehicle.lincoln.mkz2017" depart="0.00">
        <route edges="19.0.00 13.0.00 35.0.00 -27.0.00 -28.0.00 -21.0.00 -41.0.00 -51.0.00"/>
    </vehicle>
    <vehicle id="1" type="vehicle.bmw.grandtourer" depart="3.00">
        <route edges="-26.0.00 28.0.00 27.0.00 -38.0.00 -13.0.00 -14.0.00"/>
    </vehicle>
    <vehicle id="2" type="vehicle.chevrolet.impala" depart="6.00">
        <route edges="-42.0.00 -43.0.00 2.0.00 1.0.00 0.0.00 -26.0.00"/>
    </vehicle>
    <vehicle id="3" type="vehicle.nissan.patrol" depart="9.00">
        <route edges="31.0.00 -21.0.00 -22.0.00 -23.0.00 -43.0.00 2.0.00"/>
    </vehicle>
    <vehicle id="4" type="vehicle.mini.cooperst" depart="12.00">
        <route edges="-30.0.00 -39.0.00 -26.0.00 -21.0.00 40.0.00"/>
    </vehicle>
    <vehicle id="5" type="vehicle.seat.leon" depart="15.00">
        <route edges="20.0.00 48.0.00 -39.0.00 -0.0.00"/>
    </vehicle>
    <vehicle id="6" type="vehicle.audi.tt" depart="18.00">
        <route edges="-47.0.00 0.0.00 39.0.00 -48.0.00 -20.0.00"/>
    </vehicle>
    <vehicle id="7" type="vehicle.nissan.micra" depart="21.00">
        <route edges="-44.0.00 -45.0.00 -4.0.00 -8.0.00 44.0.00"/>
    </vehicle>
    <vehicle id="8" type="vehicle.audi.tt" depart="24.00">
        <route edges="37.0.00 -13.0.00 -14.0.00 -6.0.00 -47.0.00 0.0.00"/>
    </vehicle>
    <vehicle id="9" type="vehicle.mustang.mustang" depart="27.00">
        <route edges="35.0.00 -27.0.00 -28.0.00 -21.0.00 -41.0.00 -42.0.00"/>
    </vehicle>
    <vehicle id="10" type="vehicle.nissan.micra" depart="30.00">
        <route edges="42.0.00 -51.0.00 -52.0.00 49.0.00 -8.0.00 44.0.00"/>
    </vehicle>
    <vehicle id="11" type="vehicle.mini.cooperst" depart="33.00">
        <route edges="1.0.00 17.0.00 6.0.00"/>
    </vehicle>
    <vehicle id="12" type="vehicle.nissan.micra" depart="36.00">
        <route edges="2.0.00 1.0.00 -18.0.00 -22.0.00 -52.0.00"/>
    </vehicle>
    <vehicle id="13" type="vehicle.mini.cooperst" depart="39.00">
        <route edges="-41.0.00 -51.0.00 -23.0.00"/>
    </vehicle>
    <vehicle id="14" type="vehicle.lincoln.mkz2017" depart="42.00">
        <route edges="-48.0.00 -20.0.00 -28.0.00 -29.0.00 25.0.00 -6.0.00 -7.0.00"/>
    </vehicle>
    <vehicle id="15" type="vehicle.mercedes-benz.coupe" depart="45.00">
        <route edges="17.0.00 -7.0.00 4.0.00 -46.0.00"/>
    </vehicle>
    <vehicle id="16" type="vehicle.mercedes-benz.coupe" depart="48.00">
        <route edges="7.0.00 -47.0.00 -18.0.00 21.0.00"/>
    </vehicle>
    <vehicle id="17" type="vehicle.mustang.mustang" depart="51.00">
        <route edges="19.0.00 13.0.00 35.0.00 -27.0.00 -28.0.00 -21.0.00 -22.0.00 -23.0.00 -24.0.00 11.0.00 10.0.00 9.0.00"/>
    </vehicle>
    <vehicle id="18" type="vehicle.bmw.grandtourer" depart="54.00">
        <route edges="4.0.00 -46.0.00 -47.0.00 0.0.00 39.0.00"/>
    </vehicle>
    <vehicle id="19" type="vehicle.citroen.c3" depart="57.00">
        <route edges="31.0.00 -29.0.00 25.0.00 15.0.00 -19.0.00"/>
    </vehicle>
    <vehicle id="20" type="vehicle.audi.a2" depart="60.00">
        <route edges="-10.0.00 -11.0.00 24.0.00 23.0.00 -52.0.00 -2.0.00"/>
    </vehicle>
    <vehicle id="21" type="vehicle.mustang.mustang" depart="63.00">
        <route edges="-46.0.00 6.0.00 33.0.00 -48.0.00 -20.0.00"/>
    </vehicle>
    <vehicle id="22" type="vehicle.audi.a2" depart="66.00">
        <route edges="-6.0.00 -7.0.00 -5.0.00 -2.0.00 -3.0.00 10.0.00"/>
    </vehicle>
    <vehicle id="23" type="vehicle.mini.cooperst" depart="69.00">
        <route edges="-1.0.00 -2.0.00 -3.0.00 -11.0.00 24.0.00"/>
    </vehicle>
    <vehicle id="24" type="vehicle.mercedes-benz.coupe" depart="72.00">
        <route edges="23.0.00 -52.0.00 -2.0.00 -3.0.00 -11.0.00 24.0.00"/>
    </vehicle>
    <vehicle id="25" type="vehicle.audi.a2" depart="75.00">
        <route edges="-21.0.00 -22.0.00 -52.0.00"/>
    </vehicle>
    <vehicle id="26" type="vehicle.audi.a2" depart="78.00">
        <route edges="-2.0.00 43.0.00 23.0.00 -52.0.00 1.0.00"/>
    </vehicle>
    <vehicle id="27" type="vehicle.nissan.patrol" depart="81.00">
        <route edges="-52.0.00 1.0.00 0.0.00 -26.0.00 -21.0.00"/>
    </vehicle>
    <vehicle id="28" type="vehicle.mini.cooperst" depart="84.00">
        <route edges="-43.0.00 2.0.00 1.0.00 0.0.00 25.0.00 15.0.00"/>
    </vehicle>
    <vehicle id="29" type="vehicle.lincoln.mkz2017" depart="87.00">
        <route edges="28.0.00 27.0.00 -38.0.00 -13.0.00 -14.0.00 -16.0.00"/>
    </vehicle>
    <vehicle id="30" type="vehicle.seat.leon" depart="90.00">
        <route edges="-32.0.00 -16.0.00 -26.0.00 28.0.00 27.0.00 37.0.00"/>
    </vehicle>
    <vehicle id="31" type="vehicle.nissan.micra" depart="93.00">
        <route edges="41.0.00 -22.0.00 -23.0.00 -43.0.00 -3.0.00"/>
    </vehicle>
    <vehicle id="32" type="vehicle.chevrolet.impala" depart="96.00">
        <route edges="-7.0.00 -5.0.00 -50.0.00 22.0.00 21.0.00 28.0.00"/>
    </vehicle>
    <vehicle id="33" type="vehicle.nissan.patrol" depart="99.00">
        <route edges="33.0.00 -39.0.00"/>
    </vehicle>
    <vehicle id="34" type="vehicle.audi.tt" depart="102.00">
        <route edges="28.0.00 27.0.00 -38.0.00 -36.0.00"/>
    </vehicle>
    <vehicle id="35" type="vehicle.mustang.mustang" depart="105.00">
        <route edges="21.0.00 -29.0.00 -0.0.00 -1.0.00 -50.0.00 -23.0.00 -24.0.00 11.0.00"/>
    </vehicle>
    <vehicle id="36" type="vehicle.bmw.grandtourer" depart="108.00">
        <route edges="-4.0.00 -8.0.00 -45.0.00 -46.0.00 -7.0.00 4.0.00"/>
    </vehicle>
    <vehicle id="37" type="vehicle.mini.cooperst" depart="111.00">
        <route edges="45.0.00 8.0.00 7.0.00 6.0.00 33.0.00 31.0.00"/>
    </vehicle>
    <vehicle id="38" type="vehicle.citroen.c3" depart="114.00">
        <route edges="-28.0.00 -29.0.00 25.0.00 15.0.00 13.0.00"/>
    </vehicle>
    <vehicle id="39" type="vehicle.mustang.mustang" depart="117.00">
        <route edges="-3.0.00 10.0.00 9.0.00 44.0.00 43.0.00 -24.0.00 11.0.00"/>
    </vehicle>
    <vehicle id="40" type="vehicle.audi.a2" depart="120.00">
        <route edges="48.0.00 31.0.00 -21.0.00 -22.0.00 -23.0.00"/>
    </vehicle>
    <vehicle id="41" type="vehicle.nissan.micra" depart="123.00">
        <route edges="-2.0.00 -44.0.00 8.0.00 7.0.00 -47.0.00"/>
    </vehicle>
    <vehicle id="42" type="vehicle.citroen.c3" depart="126.00">
        <route edges="22.0.00 40.0.00 17.0.00 -7.0.00 -8.0.00 -9.0.00"/>
    </vehicle>
    <vehicle id="43" type="vehicle.jeep.wrangler_rubicon" depart="129.00">
        <route edges="-16.0.00 -0.0.00 -1.0.00 -50.0.00 22.0.00"/>
    </vehicle>
    <vehicle id="44" type="vehicle.lincoln.mkz2017" depart="132.00">
        <route edges="-41.0.00 -51.0.00 -52.0.00 -2.0.00"/>
    </vehicle>
    <vehicle id="45" type="vehicle.citroen.c3" depart="135.00">
        <route edges="-26.0.00 -21.0.00 40.0.00 17.0.00 -7.0.00"/>
    </vehicle>
    <vehicle id="46" type="vehicle.jeep.wrangler_rubicon" depart="138.00">
        <route edges="-24.0.00 11.0.00 10.0.00 9.0.00 44.0.00"/>
    </vehicle>
    <vehicle id="47" type="vehicle.mercedes-benz.coupe" depart="141.00">
        <route edges="-10.0.00 -11.0.00 24.0.00 23.0.00 22.0.00 21.0.00 28.0.00 27.0.00 -38.0.00"/>
    </vehicle>
    <vehicle id="48" type="vehicle.bmw.grandtourer" depart="144.00">
        <route edges="22.0.00 40.0.00 -1.0.00 -2.0.00"/>
    </vehicle>
    <vehicle id="49" type="vehicle.citroen.c3" depart="147.00">
        <route edges="6.0.00 33.0.00 -48.0.00 19.0.00"/>
    </vehicle>
    <vehicle id="50" type="vehicle.citroen.c3" depart="150.00">
        <route edges="-11.0.00 24.0.00 23.0.00 22.0.00 21.0.00 -29.0.00 39.0.00 31.0.00"/>
    </vehicle>
    <vehicle id="51" type="vehicle.audi.a2" depart="153.00">
        <route edges="48.0.00 -32.0.00 -6.0.00 -7.0.00 -8.0.00 -9.0.00"/>
    </vehicle>
    <vehicle id="52" type="vehicle.citroen.c3" depart="156.00">
        <route edges="41.0.00 -22.0.00 -52.0.00 49.0.00 7.0.00 -47.0.00"/>
    </vehicle>
    <vehicle id="53" type="vehicle.mustang.mustang" depart="159.00">
        <route edges="-16.0.00 -0.0.00 17.0.00 -7.0.00 -8.0.00 -9.0.00 -10.0.00"/>
    </vehicle>
    <vehicle id="54" type="vehicle.mercedes-benz.coupe" depart="162.00">
        <route edges="-38.0.00 -13.0.00 -14.0.00 33.0.00 -48.0.00 19.0.00"/>
    </vehicle>
    <vehicle id="55" type="vehicle.mini.cooperst" depart="165.00">
        <route edges="11.0.00 3.0.00 2.0.00 1.0.00"/>
    </vehicle>
    <vehicle id="56" type="vehicle.mini.cooperst" depart="168.00">
        <route edges="-14.0.00 -6.0.00 -7.0.00 -8.0.00 -9.0.00"/>
    </vehicle>
    <vehicle id="57" type="vehicle.nissan.micra" depart="171.00">
        <route edges="46.0.00 -4.0.00 7.0.00 6.0.00 -16.0.00"/>
    </vehicle>
    <vehicle id="58" type="vehicle.bmw.grandtourer" depart="174.00">
        <route edges="-30.0.00 -39.0.00 25.0.00 33.0.00"/>
    </vehicle>
    <vehicle id="59" type="vehicle.nissan.micra" depart="177.00">
        <route edges="21.0.00 -29.0.00 -0.0.00 -1.0.00 -50.0.00 22.0.00"/>
    </vehicle>
    <vehicle id="60" type="vehicle.jeep.wrangler_rubicon" depart="180.00">
        <route edges="8.0.00 -5.0.00"/>
    </vehicle>
    <vehicle id="61" type="vehicle.lincoln.mkz2017" depart="183.00">
        <route edges="48.0.00 -32.0.00 -6.0.00 -7.0.00 4.0.00 -46.0.00"/>
    </vehicle>
    <vehicle id="62" type="vehicle.mini.cooperst" depart="186.00">
        <route edges="8.0.00 -5.0.00 -2.0.00 -3.0.00 -11.0.00"/>
    </vehicle>
    <vehicle id="63" type="vehicle.mustang.mustang" depart="189.00">
        <route edges="-8.0.00 44.0.00 43.0.00 23.0.00 22.0.00 21.0.00 -29.0.00"/>
    </vehicle>
    <vehicle id="64" type="vehicle.mustang.mustang" depart="192.00">
        <route edges="48.0.00 -32.0.00 -6.0.00 -7.0.00 4.0.00 -46.0.00"/>
    </vehicle>
    <vehicle id="65" type="vehicle.audi.a2" depart="195.00">
        <route edges="33.0.00 -39.0.00 -0.0.00 -1.0.00 -50.0.00"/>
    </vehicle>
    <vehicle id="66" type="vehicle.seat.leon" depart="198.00">
        <route edges="17.0.00 6.0.00 -16.0.00 -26.0.00 -21.0.00"/>
    </vehicle>
    <vehicle id="67" type="vehicle.bmw.grandtourer" depart="201.00">
        <route edges="-28.0.00 -29.0.00 25.0.00 15.0.00 -19.0.00 48.0.00"/>
    </vehicle>
    <vehicle id="68" type="vehicle.nissan.micra" depart="204.00">
        <route edges="-5.0.00 -2.0.00 -44.0.00 -9.0.00 -10.0.00"/>
    </vehicle>
    <vehicle id="69" type="vehicle.audi.tt" depart="207.00">
        <route edges="-44.0.00 8.0.00 7.0.00 -47.0.00 -18.0.00 -41.0.00"/>
    </vehicle>
    <vehicle id="70" type="vehicle.mustang.mustang" depart="210.00">
        <route edges="-27.0.00 -28.0.00 -29.0.00 25.0.00 -6.0.00 -7.0.00"/>
    </vehicle>
    <vehicle id="71" type="vehicle.jeep.wrangler_rubicon" depart="213.00">
        <route edges="-46.0.00 6.0.00 -16.0.00 -26.0.00 28.0.00 27.0.00 -38.0.00 -13.0.00"/>
    </vehicle>
    <vehicle id="72" type="vehicle.lincoln.mkz2017" depart="216.00">
        <route edges="7.0.00 6.0.00 -16.0.00 -0.0.00"/>
    </vehicle>
    <vehicle id="73" type="vehicle.jeep.wrangler_rubicon" depart="219.00">
        <route edges="13.0.00 35.0.00 -27.0.00 -28.0.00 -29.0.00 39.0.00 31.0.00"/>
    </vehicle>
    <vehicle id="74" type="vehicle.mercedes-benz.coupe" depart="222.00">
        <route edges="-21.0.00 -41.0.00"/>
    </vehicle>
    <vehicle id="75" type="vehicle.audi.a2" depart="225.00">
        <route edges="19.0.00 13.0.00 35.0.00 -27.0.00 -28.0.00 -21.0.00 -22.0.00 -52.0.00 49.0.00 4.0.00"/>
    </vehicle>
    <vehicle id="76" type="vehicle.citroen.c3" depart="228.00">
        <route edges="-24.0.00 11.0.00 3.0.00 2.0.00 -50.0.00 -23.0.00 -43.0.00"/>
    </vehicle>
    <vehicle id="77" type="vehicle.nissan.micra" depart="231.00">
        <route edges="-42.0.00 -43.0.00 -44.0.00"/>
    </vehicle>
    <vehicle id="78" type="vehicle.mini.cooperst" depart="234.00">
        <route edges="-10.0.00 3.0.00 2.0.00 1.0.00 0.0.00 39.0.00 -32.0.00"/>
    </vehicle>
    <vehicle id="79" type="vehicle.jeep.wrangler_rubicon" depart="237.00">
        <route edges="-46.0.00 -47.0.00 -18.0.00 -41.0.00 -42.0.00"/>
    </vehicle>
    <vehicle id="80" type="vehicle.mercedes-benz.coupe" depart="240.00">
        <route edges="21.0.00 -29.0.00 -0.0.00 17.0.00 6.0.00"/>
    </vehicle>
    <vehicle id="81" type="vehicle.audi.tt" depart="243.00">
        <route edges="-43.0.00 2.0.00 49.0.00 7.0.00 6.0.00"/>
    </vehicle>
    <vehicle id="82" type="vehicle.jeep.wrangler_rubicon" depart="246.00">
        <route edges="7.0.00 -47.0.00 -18.0.00 -22.0.00 -23.0.00 -24.0.00 11.0.00 3.0.00"/>
    </vehicle>
    <vehicle id="83" type="vehicle.seat.leon" depart="249.00">
        <route edges="-23.0.00 42.0.00 41.0.00 21.0.00 28.0.00 27.0.00 -38.0.00"/>
    </vehicle>
    <vehicle id="84" type="vehicle.audi.a2" depart="252.00">
        <route edges="-45.0.00 -4.0.00 7.0.00"/>
    </vehicle>
    <vehicle id="85" type="vehicle.bmw.grandtourer" depart="255.00">
        <route edges="22.0.00 40.0.00 17.0.00 46.0.00 45.0.00"/>
    </vehicle>
    <vehicle id="86" type="vehicle.mini.cooperst" depart="258.00">
        <route edges="17.0.00 6.0.00 15.0.00 13.0.00 -36.0.00"/>
    </vehicle>
    <vehicle id="87" type="vehicle.audi.a2" depart="261.00">
        <route edges="-2.0.00 -3.0.00 10.0.00"/>
    </vehicle>
    <vehicle id="88" type="vehicle.mustang.mustang" depart="264.00">
        <route edges="-16.0.00"/>
    </vehicle>
    <vehicle id="89" type="vehicle.mercedes-benz.coupe" depart="267.00">
        <route edges="-36.0.00 -27.0.00 -28.0.00 -29.0.00 39.0.00"/>
    </vehicle>
    <vehicle id="90" type="vehicle.nissan.micra" depart="270.00">
        <route edges="-16.0.00 39.0.00 31.0.00 -29.0.00"/>
    </vehicle>
    <vehicle id="91" type="vehicle.audi.a2" depart="273.00">
        <route edges="2.0.00 1.0.00 0.0.00 25.0.00 15.0.00"/>
    </vehicle>
    <vehicle id="92" type="vehicle.lincoln.mkz2017" depart="276.00">
        <route edges="-27.0.00 -28.0.00 -29.0.00 25.0.00 -6.0.00 -47.0.00"/>
    </vehicle>
    <vehicle id="93" type="vehicle.mini.cooperst" depart="279.00">
        <route edges="31.0.00 -21.0.00 40.0.00 17.0.00 -7.0.00 -5.0.00"/>
    </vehicle>
    <vehicle id="94" type="vehicle.mustang.mustang" depart="282.00">
        <route edges="-22.0.00 -23.0.00 -43.0.00 -44.0.00 8.0.00 -5.0.00"/>
    </vehicle>
    <vehicle id="95" type="vehicle.chevrolet.impala" depart="285.00">
        <route edges="-20.0.00 -28.0.00 -29.0.00 -0.0.00 -1.0.00 -2.0.00"/>
    </vehicle>
    <vehicle id="96" type="vehicle.seat.leon" depart="288.00">
        <route edges="35.0.00 -27.0.00 -28.0.00 -30.0.00 -48.0.00 -20.0.00"/>
    </vehicle>
    <vehicle id="97" type="vehicle.jeep.wrangler_rubicon" depart="291.00">
        <route edges="11.0.00 3.0.00 2.0.00 1.0.00 -18.0.00 -22.0.00"/>
    </vehicle>
    <vehicle id="98" type="vehicle.lincoln.mkz2017" depart="294.00">
        <route edges="-47.0.00 -1.0.00 -2.0.00 -44.0.00 8.0.00"/>
    </vehicle>
    <vehicle id="99" type="vehicle.mustang.mustang" depart="297.00">
        <route edges="-7.0.00 -8.0.00 -45.0.00 -4.0.00"/>
    </vehicle>
    <vehicle id="100" type="vehicle.jeep.wrangler_rubicon" depart="300.00">
        <route edges="-22.0.00 -52.0.00 49.0.00 7.0.00 6.0.00"/>
    </vehicle>
    <vehicle id="101" type="vehicle.audi.tt" depart="303.00">
        <route edges="8.0.00 7.0.00 -47.0.00 -18.0.00"/>
    </vehicle>
    <vehicle id="102" type="vehicle.bmw.grandtourer" depart="306.00">
        <route edges="-7.0.00 -5.0.00 -50.0.00 22.0.00 40.0.00"/>
    </vehicle>
    <vehicle id="103" type="vehicle.nissan.micra" depart="309.00">
        <route edges="-24.0.00 11.0.00 3.0.00 2.0.00 1.0.00 0.0.00 -26.0.00 28.0.00 27.0.00 -38.0.00"/>
    </vehicle>
    <vehicle id="104" type="vehicle.audi.a2" depart="312.00">
        <route edges="46.0.00 -4.0.00 -5.0.00 -50.0.00 22.0.00 21.0.00 -29.0.00"/>
    </vehicle>
    <vehicle id="105" type="vehicle.chevrolet.impala" depart="315.00">
        <route edges="20.0.00 48.0.00 31.0.00"/>
    </vehicle>
    <vehicle id="106" type="vehicle.mini.cooperst" depart="318.00">
        <route edges="-43.0.00 2.0.00"/>
    </vehicle>
    <vehicle id="107" type="vehicle.audi.tt" depart="321.00">
        <route edges="-39.0.00 25.0.00 15.0.00 -19.0.00"/>
    </vehicle>
    <vehicle id="108" type="vehicle.chevrolet.impala" depart="324.00">
        <route edges="-20.0.00 -28.0.00 -29.0.00 -0.0.00 -1.0.00"/>
    </vehicle>
    <vehicle id="109" type="vehicle.nissan.micra" depart="327.00">
        <route edges="-45.0.00 -46.0.00 6.0.00 15.0.00 13.0.00 35.0.00 -27.0.00"/>
    </vehicle>
    <vehicle id="110" type="vehicle.bmw.grandtourer" depart="330.00">
        <route edges="-0.0.00 -1.0.00 49.0.00 4.0.00 -46.0.00"/>
    </vehicle>
    <vehicle id="111" type="vehicle.audi.tt" depart="333.00">
        <route edges="40.0.00 -1.0.00 -50.0.00 -23.0.00 -43.0.00"/>
    </vehicle>
    <vehicle id="112" type="vehicle.nissan.patrol" depart="336.00">
        <route edges="-44.0.00 8.0.00 7.0.00 -47.0.00 0.0.00 39.0.00 -32.0.00"/>
    </vehicle>
    <vehicle id="113" type="vehicle.jeep.wrangler_rubicon" depart="339.00">
        <route edges="1.0.00 -18.0.00 -41.0.00 -51.0.00 22.0.00"/>
    </vehicle>
    <vehicle id="114" type="vehicle.mercedes-benz.coupe" depart="342.00">
        <route edges="-39.0.00 -0.0.00 17.0.00 -7.0.00"/>
    </vehicle>
    <vehicle id="115" type="vehicle.chevrolet.impala" depart="345.00">
        <route edges="-36.0.00 -27.0.00 -28.0.00 -29.0.00 25.0.00 -6.0.00 -7.0.00"/>
    </vehicle>
    <vehicle id="116" type="vehicle.chevrolet.impala" depart="348.00">
        <route edges="-36.0.00 -27.0.00"/>
    </vehicle>
    <vehicle id="117" type="vehicle.nissan.patrol" depart="351.00">
        <route edges="39.0.00 31.0.00 -21.0.00 -41.0.00 -51.0.00 22.0.00"/>
    </vehicle>
    <vehicle id="118" type="vehicle.chevrolet.impala" depart="354.00">
        <route edges="-9.0.00 -10.0.00"/>
    </vehicle>
    <vehicle id="119" type="vehicle.citroen.c3" depart="357.00">
        <route edges="40.0.00 0.0.00 39.0.00"/>
    </vehicle>
    <vehicle id="120" type="vehicle.nissan.micra" depart="360.00">
        <route edges="43.0.00 -24.0.00 11.0.00 10.0.00 9.0.00 -45.0.00 -4.0.00"/>
    </vehicle>
    <vehicle id="121" type="vehicle.mercedes-benz.coupe" depart="363.00">
        <route edges="-43.0.00 2.0.00 -50.0.00"/>
    </vehicle>
    <vehicle id="122" type="vehicle.nissan.micra" depart="366.00">
        <route edges="21.0.00 -29.0.00 25.0.00 -6.0.00 -7.0.00 -8.0.00 44.0.00"/>
    </vehicle>
    <vehicle id="123" type="vehicle.nissan.patrol" depart="369.00">
        <route edges="-14.0.00 -16.0.00 -26.0.00 28.0.00 27.0.00 37.0.00"/>
    </vehicle>
    <vehicle id="124" type="vehicle.mini.cooperst" depart="372.00">
        <route edges="23.0.00 -52.0.00 49.0.00 7.0.00 6.0.00"/>
    </vehicle>
    <vehicle id="125" type="vehicle.jeep.wrangler_rubicon" depart="375.00">
        <route edges="-30.0.00 -32.0.00 15.0.00 13.0.00 35.0.00"/>
    </vehicle>
    <vehicle id="126" type="vehicle.audi.a2" depart="378.00">
        <route edges="37.0.00 -13.0.00 -14.0.00 33.0.00 -48.0.00 -20.0.00 -28.0.00"/>
    </vehicle>
    <vehicle id="127" type="vehicle.mini.cooperst" depart="381.00">
        <route edges="-26.0.00 -21.0.00 -22.0.00 -23.0.00 -43.0.00 -3.0.00 -11.0.00"/>
    </vehicle>
    <vehicle id="128" type="vehicle.mercedes-benz.coupe" depart="384.00">
        <route edges="40.0.00 0.0.00 25.0.00 15.0.00 -19.0.00 48.0.00"/>
    </vehicle>
    <vehicle id="129" type="vehicle.jeep.wrangler_rubicon" depart="387.00">
        <route edges="20.0.00 48.0.00 -39.0.00 -0.0.00 -1.0.00 -2.0.00 43.0.00"/>
    </vehicle>
    <vehicle id="130" type="vehicle.nissan.micra" depart="390.00">
        <route edges="-19.0.00 48.0.00 31.0.00 -21.0.00 -41.0.00"/>
    </vehicle>
    <vehicle id="131" type="vehicle.audi.tt" depart="393.00">
        <route edges="-14.0.00 -6.0.00 -7.0.00 -8.0.00"/>
    </vehicle>
    <vehicle id="132" type="vehicle.bmw.grandtourer" depart="396.00">
        <route edges="41.0.00 -22.0.00 -52.0.00 49.0.00 4.0.00 -46.0.00"/>
    </vehicle>
    <vehicle id="133" type="vehicle.mini.cooperst" depart="399.00">
        <route edges="-27.0.00 -28.0.00 -29.0.00 -0.0.00 -1.0.00 -2.0.00 43.0.00"/>
    </vehicle>
    <vehicle id="134" type="vehicle.seat.leon" depart="402.00">
        <route edges="49.0.00 7.0.00 -47.0.00 -1.0.00 -2.0.00"/>
    </vehicle>
    <vehicle id="135" type="vehicle.audi.tt" depart="405.00">
        <route edges="-21.0.00 40.0.00 0.0.00 25.0.00 15.0.00 13.0.00 -36.0.00"/>
    </vehicle>
    <vehicle id="136" type="vehicle.lincoln.mkz2017" depart="408.00">
        <route edges="42.0.00 -51.0.00 -52.0.00 49.0.00 4.0.00"/>
    </vehicle>
    <vehicle id="137" type="vehicle.nissan.micra" depart="411.00">
        <route edges="-42.0.00 -43.0.00 2.0.00 -50.0.00"/>
    </vehicle>
    <vehicle id="138" type="vehicle.nissan.patrol" depart="414.00">
        <route edges="0.0.00 25.0.00 -6.0.00 46.0.00"/>
    </vehicle>
    <vehicle id="139" type="vehicle.bmw.grandtourer" depart="417.00">
        <route edges="-30.0.00 -39.0.00 -0.0.00 -1.0.00 -2.0.00 -3.0.00"/>
    </vehicle>
    <vehicle id="140" type="vehicle.nissan.patrol" depart="420.00">
        <route edges="-18.0.00 21.0.00 -29.0.00 25.0.00 15.0.00 13.0.00 35.0.00 -27.0.00 20.0.00"/>
    </vehicle>
    <vehicle id="141" type="vehicle.bmw.grandtourer" depart="423.00">
        <route edges="24.0.00 23.0.00 22.0.00 21.0.00 -29.0.00 25.0.00 15.0.00 13.0.00 35.0.00"/>
    </vehicle>
    <vehicle id="142" type="vehicle.mustang.mustang" depart="426.00">
        <route edges="22.0.00 40.0.00 17.0.00 -7.0.00 -8.0.00 -9.0.00 -10.0.00"/>
    </vehicle>
    <vehicle id="143" type="vehicle.mustang.mustang" depart="429.00">
        <route edges="0.0.00 25.0.00 33.0.00 -39.0.00"/>
    </vehicle>
    <vehicle id="144" type="vehicle.nissan.micra" depart="432.00">
        <route edges="39.0.00 31.0.00 -21.0.00 -22.0.00"/>
    </vehicle>
    <vehicle id="145" type="vehicle.mercedes-benz.coupe" depart="435.00">
        <route edges="-44.0.00 -9.0.00 -10.0.00 -11.0.00"/>
    </vehicle>
    <vehicle id="146" type="vehicle.nissan.micra" depart="438.00">
        <route edges="-29.0.00 25.0.00 -6.0.00 -7.0.00 -8.0.00 -45.0.00"/>
    </vehicle>
    <vehicle id="147" type="vehicle.audi.tt" depart="441.00">
        <route edges="20.0.00 48.0.00 31.0.00 28.0.00 27.0.00 -38.0.00"/>
    </vehicle>
    <vehicle id="148" type="vehicle.seat.leon" depart="444.00">
        <route edges="4.0.00 -46.0.00 6.0.00 33.0.00 -48.0.00 -20.0.00 -28.0.00"/>
    </vehicle>
    <vehicle id="149" type="vehicle.jeep.wrangler_rubicon" depart="447.00">
        <route edges="-19.0.00 48.0.00 -39.0.00 -0.0.00 17.0.00 6.0.00"/>
    </vehicle>
    <vehicle id="150" type="vehicle.mini.cooperst" depart="450.00">
        <route edges="23.0.00 -52.0.00 -2.0.00 -3.0.00 -11.0.00 24.0.00"/>
    </vehicle>
    <vehicle id="151" type="vehicle.lincoln.mkz2017" depart="453.00">
        <route edges="49.0.00 7.0.00 6.0.00 33.0.00 -39.0.00"/>
    </vehicle>
    <vehicle id="152" type="vehicle.audi.tt" depart="456.00">
        <route edges="-27.0.00 -28.0.00 -30.0.00 -39.0.00"/>
    </vehicle>
    <vehicle id="153" type="vehicle.bmw.grandtourer" depart="459.00">
        <route edges="13.0.00 35.0.00 -27.0.00 -28.0.00 -21.0.00 -22.0.00 -52.0.00 49.0.00 7.0.00"/>
    </vehicle>
    <vehicle id="154" type="vehicle.seat.leon" depart="462.00">
        <route edges="-39.0.00 -26.0.00 -21.0.00"/>
    </vehicle>
    <vehicle id="155" type="vehicle.audi.a2" depart="465.00">
        <route edges="-14.0.00 -16.0.00 -0.0.00 -1.0.00 49.0.00"/>
    </vehicle>
    <vehicle id="156" type="vehicle.jeep.wrangler_rubicon" depart="468.00">
        <route edges="6.0.00 15.0.00 -19.0.00 48.0.00"/>
    </vehicle>
    <vehicle id="157" type="vehicle.citroen.c3" depart="471.00">
        <route edges="28.0.00 27.0.00 -38.0.00 -13.0.00 -14.0.00 -16.0.00 -26.0.00 -21.0.00 -22.0.00 -23.0.00 -24.0.00"/>
    </vehicle>
    <vehicle id="158" type="vehicle.citroen.c3" depart="474.00">
        <route edges="-38.0.00 -13.0.00 -14.0.00 -16.0.00 -0.0.00 -1.0.00 -2.0.00"/>
    </vehicle>
    <vehicle id="159" type="vehicle.jeep.wrangler_rubicon" depart="477.00">
        <route edges="15.0.00 -19.0.00 48.0.00 -32.0.00 -6.0.00 -7.0.00 -8.0.00 44.0.00"/>
    </vehicle>
    <vehicle id="160" type="vehicle.audi.a2" depart="480.00">
        <route edges="-2.0.00 43.0.00"/>
    </vehicle>
    <vehicle id="161" type="vehicle.nissan.patrol" depart="483.00">
        <route edges="46.0.00 -4.0.00 -5.0.00 1.0.00 0.0.00 25.0.00"/>
    </vehicle>
    <vehicle id="162" type="vehicle.nissan.patrol" depart="486.00">
        <route edges="-20.0.00 -28.0.00 -29.0.00 25.0.00 15.0.00 13.0.00"/>
    </vehicle>
    <vehicle id="163" type="vehicle.nissan.micra" depart="489.00">
        <route edges="-39.0.00 25.0.00"/>
    </vehicle>
    <vehicle id="164" type="vehicle.seat.leon" depart="492.00">
        <route edges="-0.0.00 -18.0.00 21.0.00 28.0.00 27.0.00 -38.0.00 -13.0.00 -14.0.00"/>
    </vehicle>
    <vehicle id="165" type="vehicle.citroen.c3" depart="495.00">
        <route edges="46.0.00 -4.0.00 -8.0.00"/>
    </vehicle>
    <vehicle id="166" type="vehicle.lincoln.mkz2017" depart="498.00">
        <route edges="-32.0.00 -16.0.00 39.0.00 31.0.00 -29.0.00"/>
    </vehicle>
    <vehicle id="167" type="vehicle.mercedes-benz.coupe" depart="501.00">
        <route edges="-38.0.00 -13.0.00 -14.0.00 -16.0.00 -0.0.00 -1.0.00 -2.0.00 -44.0.00"/>
    </vehicle>
    <vehicle id="168" type="vehicle.citroen.c3" depart="504.00">
        <route edges="-18.0.00 -22.0.00 -52.0.00 1.0.00 0.0.00 -26.0.00 -21.0.00"/>
    </vehicle>
    <vehicle id="169" type="vehicle.bmw.grandtourer" depart="507.00">
        <route edges="51.0.00 -42.0.00 -43.0.00"/>
    </vehicle>
    <vehicle id="170" type="vehicle.jeep.wrangler_rubicon" depart="510.00">
        <route edges="11.0.00 3.0.00 43.0.00 42.0.00"/>
    </vehicle>
    <vehicle id="171" type="vehicle.seat.leon" depart="513.00">
        <route edges="-20.0.00 -28.0.00 -29.0.00 25.0.00 -6.0.00 -7.0.00 -8.0.00 44.0.00"/>
    </vehicle>
    <vehicle id="172" type="vehicle.seat.leon" depart="516.00">
        <route edges="-23.0.00 -43.0.00 2.0.00 1.0.00 0.0.00 39.0.00 -48.0.00 19.0.00"/>
    </vehicle>
    <vehicle id="173" type="vehicle.citroen.c3" depart="519.00">
        <route edges="11.0.00 3.0.00 2.0.00 1.0.00 0.0.00 39.0.00 -48.0.00 -20.0.00"/>
    </vehicle>
    <vehicle id="174" type="vehicle.audi.tt" depart="522.00">
        <route edges="-4.0.00 -5.0.00 -50.0.00 22.0.00 21.0.00"/>
    </vehicle>
    <vehicle id="175" type="vehicle.audi.tt" depart="525.00">
        <route edges="-44.0.00 -9.0.00 -10.0.00 -11.0.00 24.0.00 42.0.00"/>
    </vehicle>
    <vehicle id="176" type="vehicle.nissan.patrol" depart="528.00">
        <route edges="28.0.00 27.0.00 -38.0.00 -13.0.00 -14.0.00 -16.0.00 -0.0.00 -1.0.00 -2.0.00 -3.0.00 10.0.00 9.0.00"/>
    </vehicle>
    <vehicle id="177" type="vehicle.citroen.c3" depart="531.00">
        <route edges="-1.0.00 49.0.00 7.0.00 6.0.00 33.0.00 -39.0.00"/>
    </vehicle>
    <vehicle id="178" type="vehicle.audi.tt" depart="534.00">
        <route edges="-28.0.00 -29.0.00 39.0.00 31.0.00"/>
    </vehicle>
    <vehicle id="179" type="vehicle.jeep.wrangler_rubicon" depart="537.00">
        <route edges="31.0.00 -29.0.00 25.0.00 15.0.00 13.0.00 35.0.00"/>
    </vehicle>
    <vehicle id="180" type="vehicle.audi.tt" depart="540.00">
        <route edges="-29.0.00 39.0.00 31.0.00 28.0.00 27.0.00 -38.0.00 -13.0.00"/>
    </vehicle>
    <vehicle id="181" type="vehicle.audi.a2" depart="543.00">
        <route edges="39.0.00 31.0.00 -21.0.00 -22.0.00 -52.0.00"/>
    </vehicle>
    <vehicle id="182" type="vehicle.mini.cooperst" depart="546.00">
        <route edges="7.0.00 46.0.00 45.0.00 -9.0.00"/>
    </vehicle>
    <vehicle id="183" type="vehicle.audi.a2" depart="549.00">
        <route edges="27.0.00 -38.0.00 -13.0.00 -14.0.00 -6.0.00 -7.0.00 4.0.00"/>
    </vehicle>
    <vehicle id="184" type="vehicle.nissan.patrol" depart="552.00">
        <route edges="37.0.00 -13.0.00 -14.0.00 -6.0.00 46.0.00 -4.0.00"/>
    </vehicle>
    <vehicle id="185" type="vehicle.lincoln.mkz2017" depart="555.00">
        <route edges="-19.0.00 -20.0.00"/>
    </vehicle>
    <vehicle id="186" type="vehicle.nissan.patrol" depart="558.00">
        <route edges="1.0.00 -18.0.00 -22.0.00 51.0.00"/>
    </vehicle>
    <vehicle id="187" type="vehicle.citroen.c3" depart="561.00">
        <route edges="20.0.00 48.0.00"/>
    </vehicle>
    <vehicle id="188" type="vehicle.mustang.mustang" depart="564.00">
        <route edges="-30.0.00 -39.0.00 -26.0.00 -21.0.00 -22.0.00 -23.0.00 -43.0.00 2.0.00"/>
    </vehicle>
    <vehicle id="189" type="vehicle.seat.leon" depart="567.00">
        <route edges="6.0.00 -16.0.00 -26.0.00 28.0.00 27.0.00 -38.0.00"/>
    </vehicle>