<?xml version="1.0" encoding="UTF-8"?>

<!-- generated on 2025-02-13 01:46:23 by Eclipse SUMO netedit Version 1.12.0
<configuration xmlns:xsi="http://www.w3.org/2001/XMLSchema-instance" xsi:noNamespaceSchemaLocation="http://sumo.dlr.de/xsd/netconvertConfiguration.xsd">

    <input>
        <sumo-net-file value="Carla_Town05/Town05.net.xml"/>
    </input>

    <output>
        <output-file value="Carla_Town05/Town05.net.xml"/>
    </output>

    <processing>
        <geometry.min-radius.fix.railways value="false"/>
        <geometry.max-grade.fix value="false"/>
        <offset.disable-normalization value="true"/>
        <lefthand value="false"/>
    </processing>

    <junctions>
        <no-turnarounds value="true"/>
        <junctions.corner-detail value="5"/>
        <junctions.limit-turn-speed value="5.5"/>
        <rectangular-lane-cut value="true"/>
    </junctions>

    <pedestrian>
        <walkingareas value="false"/>
    </pedestrian>

    <report>
        <aggregate-warnings value="5"/>
    </report>

</configuration>
-->

<net version="1.9" junctionCornerDetail="5" rectangularLaneCut="true" limitTurnSpeed="5.50" xmlns:xsi="http://www.w3.org/2001/XMLSchema-instance" xsi:noNamespaceSchemaLocation="http://sumo.dlr.de/xsd/net_file.xsd">

    <location netOffset="270.80,200.32" convBoundary="0.00,0.00,473.11,399.44" origBoundary="-270.80,-200.32,202.31,199.12" projParameter="!"/>

    <type id="bidirectional" priority="1" speed="1.39" disallow="pedestrian tram rail_urban rail rail_electric rail_fast ship" width="3.65"/>
    <type id="biking" priority="-1" speed="5.56" allow="bicycle" width="1.50"/>
    <type id="border" priority="0" speed="1.39" disallow="all" discard="1" width="0.10"/>
    <type id="driving" priority="1" speed="13.89" disallow="pedestrian tram rail_urban rail rail_electric rail_fast ship" width="3.65"/>
    <type id="entry" priority="1" speed="22.22" disallow="pedestrian tram rail_urban rail rail_electric rail_fast ship" width="3.65"/>
    <type id="exit" priority="1" speed="22.22" disallow="pedestrian tram rail_urban rail rail_electric rail_fast ship" width="3.65"/>
    <type id="median" priority="0" speed="1.39" disallow="all" discard="1" width="0.10"/>
    <type id="mwyEntry" priority="1" speed="22.22" allow="private emergency authority army vip passenger hov taxi bus coach delivery truck trailer motorcycle evehicle custom1 custom2" width="3.65"/>
    <type id="mwyExit" priority="1" speed="22.22" allow="private emergency authority army vip passenger hov taxi bus coach delivery truck trailer motorcycle evehicle custom1 custom2" width="3.65"/>
    <type id="none" priority="0" speed="1.39" disallow="all" discard="1" width="1.00"/>
    <type id="offRamp" priority="1" speed="22.22" allow="private emergency authority army vip passenger hov taxi bus coach delivery truck trailer motorcycle evehicle custom1 custom2" width="3.65"/>
    <type id="onRamp" priority="1" speed="22.22" allow="private emergency authority army vip passenger hov taxi bus coach delivery truck trailer motorcycle evehicle custom1 custom2" width="3.65"/>
    <type id="parking" priority="1" speed="1.39" disallow="pedestrian tram rail_urban rail rail_electric rail_fast ship" width="2.50"/>
    <type id="rail" priority="3" speed="33.33" allow="rail_urban rail rail_electric rail_fast" width="3.65"/>
    <type id="restricted" priority="0" speed="13.89" disallow="all" width="3.65"/>
    <type id="roadWorks" priority="0" speed="1.39" allow="authority" width="3.65"/>
    <type id="shoulder" priority="0" speed="1.39" disallow="all" discard="1" width="1.00"/>
    <type id="sidewalk" priority="-2" speed="2.78" allow="pedestrian" width="2.50"/>
    <type id="special1" priority="1" speed="22.22" allow="custom1" discard="1" width="3.65"/>
    <type id="special2" priority="1" speed="22.22" allow="custom2" discard="1" width="3.65"/>
    <type id="special3" priority="1" speed="22.22" allow="custom1 custom2" discard="1" width="3.65"/>
    <type id="stop" priority="1" speed="13.89" disallow="pedestrian tram rail_urban rail rail_electric rail_fast ship" width="3.65"/>
    <type id="tram" priority="2" speed="13.89" allow="tram" width="3.65"/>

    <edge id=":1050_0" function="internal">
        <lane id=":1050_0_0" index="0" disallow="pedestrian tram rail_urban rail rail_electric rail_fast ship" speed="8.47" length="15.78" width="3.50" shape="161.65,56.11,0.06 156.92,56.68,0.04 153.54,58.31,0.03 151.49,61.03,0.01 150.78,64.82"/>
    </edge>
    <edge id=":1050_1" function="internal">
        <lane id=":1050_1_0" index="0" disallow="pedestrian tram rail_urban rail rail_electric rail_fast ship" speed="13.89" length="32.27" width="3.50" shape="161.65,56.11,0.06 129.38,56.27,0.06"/>
        <lane id=":1050_1_1" index="1" disallow="pedestrian tram rail_urban rail rail_electric rail_fast ship" speed="13.89" length="32.27" width="3.50" shape="161.63,52.61,0.06 129.37,52.77,0.06"/>
    </edge>
    <edge id=":1050_3" function="internal">
        <lane id=":1050_3_0" index="0" disallow="pedestrian tram rail_urban rail rail_electric rail_fast ship" speed="13.89" length="32.27" width="3.50" shape="129.33,45.77,0.06 161.60,45.61,0.06"/>
        <lane id=":1050_3_1" index="1" disallow="pedestrian tram rail_urban rail rail_electric rail_fast ship" speed="13.89" length="32.27" width="3.50" shape="129.35,49.27,0.06 161.61,49.11,0.06"/>
    </edge>
    <edge id=":1050_5" function="internal">
        <lane id=":1050_5_0" index="0" disallow="pedestrian tram rail_urban rail rail_electric rail_fast ship" speed="10.84" length="6.98" width="3.50" shape="129.35,49.27,0.06 136.28,50.09,0.04"/>
    </edge>
    <edge id=":1050_8" function="internal">
        <lane id=":1050_8_0" index="0" disallow="pedestrian tram rail_urban rail rail_electric rail_fast ship" speed="10.84" length="20.10" width="3.50" shape="136.28,50.09,0.04 137.25,50.21,0.04 142.87,53.11,0.03 146.21,57.97,0.02 147.28,64.79"/>
    </edge>
    <edge id=":1050_6" function="internal">
        <lane id=":1050_6_0" index="0" disallow="pedestrian tram rail_urban rail rail_electric rail_fast ship" speed="8.37" length="15.70" width="3.50" shape="140.28,64.73 139.63,61.01,0.01 137.59,58.36,0.03 134.18,56.78,0.04 129.38,56.27,0.06"/>
    </edge>
    <edge id=":1050_7" function="internal">
        <lane id=":1050_7_0" index="0" disallow="pedestrian tram rail_urban rail rail_electric rail_fast ship" speed="10.92" length="26.94" width="3.50" shape="143.78,64.76 144.95,57.94,0.02 148.31,53.06,0.03 153.86,50.12,0.04 161.61,49.11,0.06"/>
    </edge>
    <edge id=":1070_0" function="internal">
        <lane id=":1070_0_0" index="0" disallow="pedestrian tram rail_urban rail rail_electric rail_fast ship" speed="7.52" length="12.33" width="3.50" shape="295.38,124.20 294.96,120.49 293.68,117.84 291.57,116.26 288.61,115.73"/>
    </edge>
    <edge id=":1070_1" function="internal">
        <lane id=":1070_1_0" index="0" disallow="pedestrian tram rail_urban rail rail_electric rail_fast ship" speed="13.89" length="27.81" width="3.50" shape="295.38,124.20 295.37,96.39"/>
        <lane id=":1070_1_1" index="1" disallow="pedestrian tram rail_urban rail rail_electric rail_fast ship" speed="13.89" length="27.81" width="3.50" shape="298.88,124.20 298.87,96.39"/>
    </edge>
    <edge id=":1070_3" function="internal">
        <lane id=":1070_3_0" index="0" disallow="pedestrian tram rail_urban rail rail_electric rail_fast ship" speed="10.50" length="6.35" width="3.50" shape="298.88,124.20 299.74,117.91"/>
    </edge>
    <edge id=":1070_16" function="internal">
        <lane id=":1070_16_0" index="0" disallow="pedestrian tram rail_urban rail rail_electric rail_fast ship" speed="10.50" length="18.87" width="3.50" shape="299.74,117.91 299.83,117.19 302.70,112.20 307.48,109.23 314.18,108.27"/>
    </edge>
    <edge id=":1070_4" function="internal">
        <lane id=":1070_4_0" index="0" disallow="pedestrian tram rail_urban rail rail_electric rail_fast ship" speed="7.92" length="13.87" width="3.50" shape="314.13,115.27 310.52,115.81 307.94,117.47 306.39,120.27 305.88,124.20"/>
    </edge>
    <edge id=":1070_5" function="internal">
        <lane id=":1070_5_0" index="0" disallow="pedestrian tram rail_urban rail rail_electric rail_fast ship" speed="13.89" length="25.54" width="3.50" shape="314.13,115.27 288.61,115.73"/>
        <lane id=":1070_5_1" index="1" disallow="pedestrian tram rail_urban rail rail_electric rail_fast ship" speed="13.89" length="25.54" width="3.50" shape="314.15,111.77 288.60,112.23"/>
    </edge>
    <edge id=":1070_7" function="internal">
        <lane id=":1070_7_0" index="0" disallow="pedestrian tram rail_urban rail rail_electric rail_fast ship" speed="10.45" length="24.69" width="3.50" shape="314.15,111.77 307.47,110.77 302.69,107.87 299.83,103.08 298.87,96.39"/>
    </edge>
    <edge id=":1070_8" function="internal">
        <lane id=":1070_8_0" index="0" disallow="pedestrian tram rail_urban rail rail_electric rail_fast ship" speed="7.85" length="13.46" width="3.50" shape="305.87,96.38 306.39,100.03 307.95,102.65 310.56,104.22 314.20,104.77"/>
    </edge>
    <edge id=":1070_9" function="internal">
        <lane id=":1070_9_0" index="0" disallow="pedestrian tram rail_urban rail rail_electric rail_fast ship" speed="13.89" length="27.81" width="3.50" shape="305.87,96.38 305.88,124.20"/>
        <lane id=":1070_9_1" index="1" disallow="pedestrian tram rail_urban rail rail_electric rail_fast ship" speed="13.89" length="27.81" width="3.50" shape="302.37,96.39 302.38,124.20"/>
    </edge>
    <edge id=":1070_11" function="internal">
        <lane id=":1070_11_0" index="0" disallow="pedestrian tram rail_urban rail rail_electric rail_fast ship" speed="10.26" length="6.85" width="3.50" shape="302.37,96.39 301.53,103.19"/>
    </edge>
    <edge id=":1070_17" function="internal">
        <lane id=":1070_17_0" index="0" disallow="pedestrian tram rail_urban rail rail_electric rail_fast ship" speed="10.26" length="17.05" width="3.50" shape="301.53,103.19 301.51,103.31 298.93,108.26 294.63,111.23 288.60,112.23"/>
    </edge>
    <edge id=":1070_12" function="internal">
        <lane id=":1070_12_0" index="0" disallow="pedestrian tram rail_urban rail rail_electric rail_fast ship" speed="7.61" length="12.63" width="3.50" shape="288.59,105.23 291.56,104.67 293.68,103.02 294.95,100.26 295.37,96.39"/>
    </edge>
    <edge id=":1070_13" function="internal">
        <lane id=":1070_13_0" index="0" disallow="pedestrian tram rail_urban rail rail_electric rail_fast ship" speed="13.89" length="25.60" width="3.50" shape="288.59,105.23 314.20,104.77"/>
        <lane id=":1070_13_1" index="1" disallow="pedestrian tram rail_urban rail rail_electric rail_fast ship" speed="13.89" length="25.60" width="3.50" shape="288.60,108.73 314.18,108.27"/>
    </edge>
    <edge id=":1070_15" function="internal">
        <lane id=":1070_15_0" index="0" disallow="pedestrian tram rail_urban rail rail_electric rail_fast ship" speed="10.20" length="23.61" width="3.50" shape="288.60,108.73 294.63,109.69 298.93,112.59 301.52,117.43 302.38,124.20"/>
    </edge>
    <edge id=":1148_0" function="internal">
        <lane id=":1148_0_0" index="0" disallow="pedestrian tram rail_urban rail rail_electric rail_fast ship" speed="13.89" length="23.19" width="3.50" shape="299.00,360.06 298.38,336.88"/>
        <lane id=":1148_0_1" index="1" disallow="pedestrian tram rail_urban rail rail_electric rail_fast ship" speed="13.89" length="23.19" width="3.50" shape="302.50,359.96 301.88,336.78"/>
    </edge>
    <edge id=":1148_2" function="internal">
        <lane id=":1148_2_0" index="0" disallow="pedestrian tram rail_urban rail rail_electric rail_fast ship" speed="7.95" length="14.27" width="3.50" shape="317.01,349.82,0.04 313.62,350.41,0.03 311.24,352.27,0.02 309.87,355.39,0.01 309.50,359.78"/>
    </edge>
    <edge id=":1148_3" function="internal">
        <lane id=":1148_3_0" index="0" disallow="pedestrian tram rail_urban rail rail_electric rail_fast ship" speed="8.17" length="14.33" width="3.50" shape="308.87,336.60 309.48,340.82,0.01 311.05,343.85,0.02 313.57,345.68,0.03 317.05,346.32,0.04"/>
    </edge>
    <edge id=":1148_4" function="internal">
        <lane id=":1148_4_0" index="0" disallow="pedestrian tram rail_urban rail rail_electric rail_fast ship" speed="13.89" length="23.19" width="3.50" shape="308.87,336.60 309.50,359.78"/>
        <lane id=":1148_4_1" index="1" disallow="pedestrian tram rail_urban rail rail_electric rail_fast ship" speed="13.89" length="23.19" width="3.50" shape="305.37,336.69 306.00,359.87"/>
    </edge>
    <edge id=":1162_0" function="internal">
        <lane id=":1162_0_0" index="0" disallow="pedestrian tram rail_urban rail rail_electric rail_fast ship" speed="13.89" length="23.20" width="3.50" shape="295.35,68.75 295.35,45.55"/>
        <lane id=":1162_0_1" index="1" disallow="pedestrian tram rail_urban rail rail_electric rail_fast ship" speed="13.89" length="23.20" width="3.50" shape="298.85,68.75 298.85,45.55"/>
    </edge>
    <edge id=":1162_2" function="internal">
        <lane id=":1162_2_0" index="0" disallow="pedestrian tram rail_urban rail rail_electric rail_fast ship" speed="8.20" length="14.43" width="3.50" shape="313.90,58.81,0.04 310.38,59.55,0.03 307.86,61.45,0.02 306.35,64.52,0.01 305.85,68.75"/>
    </edge>
    <edge id=":1162_3" function="internal">
        <lane id=":1162_3_0" index="0" disallow="pedestrian tram rail_urban rail rail_electric rail_fast ship" speed="7.97" length="14.40" width="3.50" shape="305.85,45.55 306.34,49.93,0.01 307.83,53.03,0.02 310.30,54.82,0.03 313.77,55.31,0.04"/>
    </edge>
    <edge id=":1162_4" function="internal">
        <lane id=":1162_4_0" index="0" disallow="pedestrian tram rail_urban rail rail_electric rail_fast ship" speed="13.89" length="23.20" width="3.50" shape="305.85,45.55 305.85,68.75"/>
        <lane id=":1162_4_1" index="1" disallow="pedestrian tram rail_urban rail rail_electric rail_fast ship" speed="13.89" length="23.20" width="3.50" shape="302.35,45.55 302.35,68.75"/>
    </edge>
    <edge id=":1175_0" function="internal">
        <lane id=":1175_0_0" index="0" disallow="pedestrian tram rail_urban rail rail_electric rail_fast ship" speed="8.50" length="15.93" width="3.50" shape="161.38,115.87 156.54,116.41 153.07,118.03 150.97,120.72 150.25,124.48"/>
    </edge>
    <edge id=":1175_1" function="internal">
        <lane id=":1175_1_0" index="0" disallow="pedestrian tram rail_urban rail rail_electric rail_fast ship" speed="13.89" length="32.50" width="3.50" shape="161.38,115.87 128.88,115.91"/>
        <lane id=":1175_1_1" index="1" disallow="pedestrian tram rail_urban rail rail_electric rail_fast ship" speed="13.89" length="32.50" width="3.50" shape="161.37,112.37 128.87,112.41"/>
    </edge>
    <edge id=":1175_3" function="internal">
        <lane id=":1175_3_0" index="0" disallow="pedestrian tram rail_urban rail rail_electric rail_fast ship" speed="10.84" length="6.99" width="3.50" shape="161.37,112.37 154.44,111.52"/>
    </edge>
    <edge id=":1175_16" function="internal">
        <lane id=":1175_16_0" index="0" disallow="pedestrian tram rail_urban rail rail_electric rail_fast ship" speed="10.84" length="20.03" width="3.50" shape="154.44,111.52 153.50,111.41 147.89,108.50 144.56,103.64 143.49,96.84"/>
    </edge>
    <edge id=":1175_4" function="internal">
        <lane id=":1175_4_0" index="0" disallow="pedestrian tram rail_urban rail rail_electric rail_fast ship" speed="8.38" length="15.67" width="3.50" shape="150.49,96.91 151.14,100.61 153.17,103.26 156.58,104.85 161.37,105.37"/>
    </edge>
    <edge id=":1175_5" function="internal">
        <lane id=":1175_5_0" index="0" disallow="pedestrian tram rail_urban rail rail_electric rail_fast ship" speed="13.89" length="27.57" width="3.50" shape="150.49,96.91 150.25,124.48"/>
        <lane id=":1175_5_1" index="1" disallow="pedestrian tram rail_urban rail rail_electric rail_fast ship" speed="13.89" length="27.57" width="3.50" shape="146.99,96.88 146.75,124.45"/>
    </edge>
    <edge id=":1175_7" function="internal">
        <lane id=":1175_7_0" index="0" disallow="pedestrian tram rail_urban rail rail_electric rail_fast ship" speed="10.94" length="27.11" width="3.50" shape="146.99,96.88 145.81,103.66 142.39,108.52 136.75,111.43 128.87,112.41"/>
    </edge>
    <edge id=":1175_8" function="internal">
        <lane id=":1175_8_0" index="0" disallow="pedestrian tram rail_urban rail rail_electric rail_fast ship" speed="8.50" length="15.93" width="3.50" shape="128.86,105.41 133.70,104.87 137.17,103.25 139.27,100.57 139.99,96.81"/>
    </edge>
    <edge id=":1175_9" function="internal">
        <lane id=":1175_9_0" index="0" disallow="pedestrian tram rail_urban rail rail_electric rail_fast ship" speed="13.89" length="32.50" width="3.50" shape="128.86,105.41 161.37,105.37"/>
        <lane id=":1175_9_1" index="1" disallow="pedestrian tram rail_urban rail rail_electric rail_fast ship" speed="13.89" length="32.50" width="3.50" shape="128.87,108.91 161.37,108.87"/>
    </edge>
    <edge id=":1175_11" function="internal">
        <lane id=":1175_11_0" index="0" disallow="pedestrian tram rail_urban rail rail_electric rail_fast ship" speed="10.84" length="6.98" width="3.50" shape="128.87,108.91 135.80,109.76"/>
    </edge>
    <edge id=":1175_17" function="internal">
        <lane id=":1175_17_0" index="0" disallow="pedestrian tram rail_urban rail rail_electric rail_fast ship" speed="10.84" length="20.04" width="3.50" shape="135.80,109.76 136.74,109.87 142.35,112.78 145.68,117.64 146.75,124.45"/>
    </edge>
    <edge id=":1175_12" function="internal">
        <lane id=":1175_12_0" index="0" disallow="pedestrian tram rail_urban rail rail_electric rail_fast ship" speed="8.38" length="15.68" width="3.50" shape="139.75,124.38 139.10,120.67 137.07,118.02 133.66,116.44 128.88,115.91"/>
    </edge>
    <edge id=":1175_13" function="internal">
        <lane id=":1175_13_0" index="0" disallow="pedestrian tram rail_urban rail rail_electric rail_fast ship" speed="13.89" length="27.57" width="3.50" shape="139.75,124.38 139.99,96.81"/>
        <lane id=":1175_13_1" index="1" disallow="pedestrian tram rail_urban rail rail_electric rail_fast ship" speed="13.89" length="27.57" width="3.50" shape="143.25,124.41 143.49,96.84"/>
    </edge>
    <edge id=":1175_15" function="internal">
        <lane id=":1175_15_0" index="0" disallow="pedestrian tram rail_urban rail rail_electric rail_fast ship" speed="10.94" length="27.12" width="3.50" shape="143.25,124.41 144.43,117.62 147.85,112.77 153.49,109.85 161.37,108.87"/>
    </edge>
    <edge id=":1260_0" function="internal">
        <lane id=":1260_0_0" index="0" disallow="pedestrian tram rail_urban rail rail_electric rail_fast ship" speed="8.40" length="15.77" width="3.50" shape="295.34,24.05 294.84,19.04 293.33,15.47 290.82,13.35 287.31,12.67"/>
    </edge>
    <edge id=":1260_1" function="internal">
        <lane id=":1260_1_0" index="0" disallow="pedestrian tram rail_urban rail rail_electric rail_fast ship" speed="11.80" length="31.89" width="3.50" shape="298.84,24.05 299.67,12.91 302.16,4.95 306.32,0.16 312.14,-1.46"/>
    </edge>
    <edge id=":1260_2" function="internal">
        <lane id=":1260_2_0" index="0" disallow="pedestrian tram rail_urban rail rail_electric rail_fast ship" speed="8.16" length="14.64" width="3.50" shape="312.21,12.54 309.42,13.27 307.43,15.43 306.24,19.02 305.84,24.04"/>
    </edge>
    <edge id=":1260_3" function="internal">
        <lane id=":1260_3_0" index="0" disallow="pedestrian tram rail_urban rail rail_electric rail_fast ship" speed="13.89" length="24.92" width="3.50" shape="312.21,12.54 287.31,12.67"/>
        <lane id=":1260_3_1" index="1" disallow="pedestrian tram rail_urban rail rail_electric rail_fast ship" speed="13.89" length="24.92" width="3.50" shape="312.19,9.04 287.27,9.17"/>
        <lane id=":1260_3_2" index="2" disallow="pedestrian tram rail_urban rail rail_electric rail_fast ship" speed="13.89" length="24.92" width="3.50" shape="312.17,5.54 287.24,5.67"/>
    </edge>
    <edge id=":1260_6" function="internal">
        <lane id=":1260_6_0" index="0" disallow="pedestrian tram rail_urban rail rail_electric rail_fast ship" speed="13.89" length="24.99" width="3.50" shape="287.09,-8.33 312.10,-8.46"/>
        <lane id=":1260_6_1" index="1" disallow="pedestrian tram rail_urban rail rail_electric rail_fast ship" speed="13.89" length="24.99" width="3.50" shape="287.13,-4.83 312.12,-4.96"/>
        <lane id=":1260_6_2" index="2" disallow="pedestrian tram rail_urban rail rail_electric rail_fast ship" speed="13.89" length="24.99" width="3.50" shape="287.16,-1.33 312.14,-1.46"/>
    </edge>
    <edge id=":1260_9" function="internal">
        <lane id=":1260_9_0" index="0" disallow="pedestrian tram rail_urban rail rail_electric rail_fast ship" speed="11.96" length="10.59" width="3.50" shape="287.16,-1.33 293.80,0.20 296.48,2.87"/>
    </edge>
    <edge id=":1260_10" function="internal">
        <lane id=":1260_10_0" index="0" disallow="pedestrian tram rail_urban rail rail_electric rail_fast ship" speed="11.96" length="22.57" width="3.50" shape="296.48,2.87 298.54,4.94 301.39,12.89 302.34,24.05"/>
    </edge>
    <edge id=":139_0" function="internal">
        <lane id=":139_0_0" index="0" disallow="pedestrian tram rail_urban rail rail_electric rail_fast ship" speed="8.03" length="14.13" width="3.50" shape="216.46,124.15,0.06 215.87,120.50,0.04 214.13,117.90,0.03 211.26,116.34,0.02 207.26,115.82"/>
    </edge>
    <edge id=":139_1" function="internal">
        <lane id=":139_1_0" index="0" disallow="pedestrian tram rail_urban rail rail_electric rail_fast ship" speed="13.89" length="27.26" width="3.50" shape="216.46,124.15,0.06 216.28,96.89,0.06"/>
        <lane id=":139_1_1" index="1" disallow="pedestrian tram rail_urban rail rail_electric rail_fast ship" speed="13.89" length="27.26" width="3.50" shape="219.96,124.13,0.06 219.78,96.87,0.06"/>
    </edge>
    <edge id=":139_3" function="internal">
        <lane id=":139_3_0" index="0" disallow="pedestrian tram rail_urban rail rail_electric rail_fast ship" speed="10.29" length="24.16" width="3.50" shape="219.96,124.13,0.06 220.84,117.42,0.04 223.56,112.63,0.03 228.12,109.75,0.02 234.54,108.79"/>
    </edge>
    <edge id=":139_4" function="internal">
        <lane id=":139_4_0" index="0" disallow="pedestrian tram rail_urban rail rail_electric rail_fast ship" speed="7.65" length="12.82" width="3.50" shape="234.55,115.79 231.21,116.31,0.02 228.83,117.87,0.03 227.42,120.46,0.04 226.96,124.08,0.06"/>
    </edge>
    <edge id=":139_5" function="internal">
        <lane id=":139_5_0" index="0" disallow="pedestrian tram rail_urban rail rail_electric rail_fast ship" speed="13.89" length="27.29" width="3.50" shape="234.55,115.79 207.26,115.82"/>
        <lane id=":139_5_1" index="1" disallow="pedestrian tram rail_urban rail rail_electric rail_fast ship" speed="13.89" length="27.29" width="3.50" shape="234.54,112.29 207.25,112.32"/>
    </edge>
    <edge id=":139_7" function="internal">
        <lane id=":139_7_0" index="0" disallow="pedestrian tram rail_urban rail rail_electric rail_fast ship" speed="10.36" length="5.78" width="3.50" shape="234.54,112.29 228.82,111.44,0.01"/>
    </edge>
    <edge id=":139_16" function="internal">
        <lane id=":139_16_0" index="0" disallow="pedestrian tram rail_urban rail rail_electric rail_fast ship" speed="10.36" length="18.53" width="3.50" shape="228.82,111.44,0.01 228.12,111.33,0.02 223.53,108.44,0.03 220.74,103.62,0.04 219.78,96.87,0.06"/>
    </edge>
    <edge id=":139_8" function="internal">
        <lane id=":139_8_0" index="0" disallow="pedestrian tram rail_urban rail rail_electric rail_fast ship" speed="7.74" length="13.07" width="3.50" shape="226.78,96.82,0.06 227.29,100.53,0.04 228.75,103.18,0.03 231.16,104.76,0.02 234.53,105.29"/>
    </edge>
    <edge id=":139_9" function="internal">
        <lane id=":139_9_0" index="0" disallow="pedestrian tram rail_urban rail rail_electric rail_fast ship" speed="13.89" length="27.26" width="3.50" shape="226.78,96.82,0.06 226.96,124.08,0.06"/>
        <lane id=":139_9_1" index="1" disallow="pedestrian tram rail_urban rail rail_electric rail_fast ship" speed="13.89" length="27.26" width="3.50" shape="223.28,96.84,0.06 223.46,124.10,0.06"/>
    </edge>
    <edge id=":139_11" function="internal">
        <lane id=":139_11_0" index="0" disallow="pedestrian tram rail_urban rail rail_electric rail_fast ship" speed="10.55" length="25.44" width="3.50" shape="223.28,96.84,0.06 222.32,103.61,0.04 219.33,108.44,0.03 214.31,111.35,0.02 207.25,112.32"/>
    </edge>
    <edge id=":139_12" function="internal">
        <lane id=":139_12_0" index="0" disallow="pedestrian tram rail_urban rail rail_electric rail_fast ship" speed="7.99" length="14.11" width="3.50" shape="207.24,105.32 211.22,104.79,0.02 214.05,103.21,0.03 215.74,100.57,0.04 216.28,96.89,0.06"/>
    </edge>
    <edge id=":139_13" function="internal">
        <lane id=":139_13_0" index="0" disallow="pedestrian tram rail_urban rail rail_electric rail_fast ship" speed="13.89" length="27.29" width="3.50" shape="207.24,105.32 234.53,105.29"/>
        <lane id=":139_13_1" index="1" disallow="pedestrian tram rail_urban rail rail_electric rail_fast ship" speed="13.89" length="27.29" width="3.50" shape="207.25,108.82 234.54,108.79"/>
    </edge>
    <edge id=":139_15" function="internal">
        <lane id=":139_15_0" index="0" disallow="pedestrian tram rail_urban rail rail_electric rail_fast ship" speed="10.58" length="6.39" width="3.50" shape="207.25,108.82 213.58,109.67,0.02"/>
    </edge>
    <edge id=":139_17" function="internal">
        <lane id=":139_17_0" index="0" disallow="pedestrian tram rail_urban rail rail_electric rail_fast ship" speed="10.58" length="18.99" width="3.50" shape="213.58,109.67,0.02 214.30,109.77,0.02 219.36,112.63,0.03 222.41,117.41,0.04 223.46,124.10,0.06"/>
    </edge>
    <edge id=":224_0" function="internal">
        <lane id=":224_0_0" index="0" disallow="pedestrian tram rail_urban rail rail_electric rail_fast ship" speed="8.47" length="15.98" width="3.50" shape="422.31,212.17,0.04 421.69,207.83,0.03 419.83,204.74,0.03 416.73,202.89,0.03 412.39,202.29,0.02"/>
    </edge>
    <edge id=":224_1" function="internal">
        <lane id=":224_1_0" index="0" disallow="pedestrian tram rail_urban rail rail_electric rail_fast ship" speed="13.89" length="23.26" width="3.50" shape="422.31,212.17,0.04 422.32,188.91,0.04"/>
    </edge>
    <edge id=":224_2" function="internal">
        <lane id=":224_2_0" index="0" disallow="pedestrian tram rail_urban rail rail_electric rail_fast ship" speed="13.89" length="23.26" width="3.50" shape="425.82,188.92,0.04 425.81,212.18,0.04"/>
    </edge>
    <edge id=":224_3" function="internal">
        <lane id=":224_3_0" index="0" disallow="pedestrian tram rail_urban rail rail_electric rail_fast ship" speed="9.79" length="5.89" width="3.50" shape="425.82,188.92,0.04 424.98,194.74,0.03"/>
    </edge>
    <edge id=":224_6" function="internal">
        <lane id=":224_6_0" index="0" disallow="pedestrian tram rail_urban rail rail_electric rail_fast ship" speed="9.79" length="15.70" width="3.50" shape="424.98,194.74,0.03 422.46,198.92,0.03 418.26,201.43,0.03 412.39,202.29,0.02"/>
    </edge>
    <edge id=":224_4" function="internal">
        <lane id=":224_4_0" index="0" disallow="pedestrian tram rail_urban rail rail_electric rail_fast ship" speed="8.50" length="15.97" width="3.50" shape="412.38,198.79,0.02 416.72,198.16,0.03 419.83,196.30,0.03 421.70,193.22,0.03 422.32,188.91,0.04"/>
    </edge>
    <edge id=":224_5" function="internal">
        <lane id=":224_5_0" index="0" disallow="pedestrian tram rail_urban rail rail_electric rail_fast ship" speed="9.77" length="21.65" width="3.50" shape="412.38,198.79,0.02 418.26,199.60,0.03 422.46,202.11,0.03 424.97,206.30,0.03 425.81,212.18,0.04"/>
    </edge>
    <edge id=":24.11_0" function="internal">
        <lane id=":24.11_0_0" index="0" allow="pedestrian" speed="2.78" length="3.00" width="2.00" shape="9.20,179.26 9.17,182.26"/>
        <lane id=":24.11_0_1" index="1" disallow="all" speed="1.39" length="3.00" width="0.63" shape="7.89,179.24 7.86,182.25"/>
        <lane id=":24.11_0_2" index="2" disallow="all" speed="1.39" length="3.00" width="0.50" shape="7.32,179.24 7.29,182.24"/>
        <lane id=":24.11_0_3" index="3" disallow="pedestrian tram rail_urban rail rail_electric rail_fast ship" speed="13.89" length="3.00" width="3.50" shape="5.32,179.22 5.29,182.22"/>
        <lane id=":24.11_0_4" index="4" disallow="pedestrian tram rail_urban rail rail_electric rail_fast ship" speed="13.89" length="3.00" width="3.50" shape="1.83,179.18 1.79,182.18"/>
    </edge>
    <edge id=":24.11_5" function="internal">
        <lane id=":24.11_5_0" index="0" allow="pedestrian" speed="2.78" length="4.30" width="2.00" shape="-18.08,181.98 -9.05,179.07"/>
        <lane id=":24.11_5_1" index="1" disallow="all" speed="1.39" length="4.30" width="0.63" shape="-7.77,182.08 -7.74,179.08"/>
        <lane id=":24.11_5_2" index="2" disallow="all" speed="1.39" length="4.30" width="0.50" shape="-7.21,182.09 -7.17,179.09"/>
        <lane id=":24.11_5_3" index="3" disallow="pedestrian tram rail_urban rail rail_electric rail_fast ship" speed="13.89" length="4.30" width="3.50" shape="-5.21,182.11 -5.17,179.11"/>
        <lane id=":24.11_5_4" index="4" disallow="pedestrian tram rail_urban rail rail_electric rail_fast ship" speed="13.89" length="4.30" width="3.50" shape="-1.71,182.15 -1.67,179.15"/>
    </edge>
    <edge id=":245_0" function="internal">
        <lane id=":245_0_0" index="0" disallow="pedestrian tram rail_urban rail rail_electric rail_fast ship" speed="7.40" length="11.91" width="3.50" shape="75.70,303.84,0.06 75.30,300.19,0.04 74.11,297.59,0.03 72.11,296.03,0.01 69.31,295.51"/>
    </edge>
    <edge id=":245_1" function="internal">