<?xml version="1.0" encoding="UTF-8"?>

<!-- generated on 2023-03-17 22:08:16 by Eclipse SUMO netedit Version 1.15.0
<configuration xmlns:xsi="http://www.w3.org/2001/XMLSchema-instance" xsi:noNamespaceSchemaLocation="http://sumo.dlr.de/xsd/netconvertConfiguration.xsd">

    <input>
        <sumo-net-file value="/home/yuan/carma-simulation/co-simulation/rti/mosaic-starter/scenarios/Town04_20/sumo/Town04.net.xml"/>
    </input>

    <output>
        <output-file value="/home/yuan/carma-simulation/co-simulation/rti/mosaic-starter/scenarios/Town04_20/sumo/Town04.net.xml"/>
    </output>

    <processing>
        <geometry.min-radius.fix.railways value="false"/>
        <geometry.max-grade.fix value="false"/>
        <offset.disable-normalization value="true"/>
        <lefthand value="0"/>
    </processing>

    <junctions>
        <no-turnarounds value="true"/>
        <junctions.corner-detail value="5"/>
        <junctions.limit-turn-speed value="5.50"/>
        <rectangular-lane-cut value="1"/>
    </junctions>

    <pedestrian>
        <walkingareas value="0"/>
    </pedestrian>

    <netedit>
        <additional-files value="/home/yuan/carma-simulation/co-simulation/rti/mosaic-starter/scenarios/Town04_20/sumo/detector.xml"/>
    </netedit>

</configuration>
-->

<net version="1.9" junctionCornerDetail="5" rectangularLaneCut="true" limitTurnSpeed="5.50" xmlns:xsi="http://www.w3.org/2001/XMLSchema-instance" xsi:noNamespaceSchemaLocation="http://sumo.dlr.de/xsd/net_file.xsd">

    <location netOffset="503.02,423.76" convBoundary="0.00,0.00,897.92,800.65" origBoundary="0.00,0.00,0.00,0.00" projParameter="+proj=tmerc +lat_0=0 +lon_0=0 +k=1 +x_0=0 +y_0=0 +datum=WGS84 +units=m +geoidgrids=egm96_15.gtx +vunits=m +no_defs"/>

    <type id="bidirectional" priority="1" speed="1.39" disallow="pedestrian tram rail_urban rail rail_electric rail_fast ship" width="3.65"/>
    <type id="biking" priority="-1" speed="5.56" allow="bicycle" width="1.50"/>
    <type id="border" priority="0" speed="1.39" disallow="all" discard="1" width="0.10"/>
    <type id="driving" priority="1" speed="13.89" disallow="pedestrian tram rail_urban rail rail_electric rail_fast ship" width="3.65"/>
    <type id="entry" priority="1" speed="22.22" disallow="pedestrian tram rail_urban rail rail_electric rail_fast ship" width="3.65"/>
    <type id="exit" priority="1" speed="22.22" disallow="pedestrian tram rail_urban rail rail_electric rail_fast ship" width="3.65"/>
    <type id="median" priority="0" speed="1.39" disallow="all" discard="1" width="0.10"/>
    <type id="mwyEntry" priority="1" speed="22.22" allow="private emergency authority army vip passenger hov taxi bus coach delivery truck trailer motorcycle evehicle custom1 custom2" width="3.65"/>
    <type id="mwyExit" priority="1" speed="22.22" allow="private emergency authority army vip passenger hov taxi bus coach delivery truck trailer motorcycle evehicle custom1 custom2" width="3.65"/>
    <type id="none" priority="0" speed="1.39" disallow="all" discard="1" width="1.00"/>
    <type id="offRamp" priority="1" speed="22.22" allow="private emergency authority army vip passenger hov taxi bus coach delivery truck trailer motorcycle evehicle custom1 custom2" width="3.65"/>
    <type id="onRamp" priority="1" speed="22.22" allow="private emergency authority army vip passenger hov taxi bus coach delivery truck trailer motorcycle evehicle custom1 custom2" width="3.65"/>
    <type id="parking" priority="1" speed="1.39" disallow="pedestrian tram rail_urban rail rail_electric rail_fast ship" width="2.50"/>
    <type id="rail" priority="3" speed="33.33" allow="rail_urban rail rail_electric rail_fast" width="3.65"/>
    <type id="restricted" priority="0" speed="13.89" disallow="all" width="3.65"/>
    <type id="roadWorks" priority="0" speed="1.39" allow="authority" width="3.65"/>
    <type id="shoulder" priority="0" speed="1.39" disallow="all" discard="1" width="1.00"/>
    <type id="sidewalk" priority="-2" speed="2.78" allow="pedestrian" width="2.50"/>
    <type id="special1" priority="1" speed="22.22" allow="custom1" discard="1" width="3.65"/>
    <type id="special2" priority="1" speed="22.22" allow="custom2" discard="1" width="3.65"/>
    <type id="special3" priority="1" speed="22.22" allow="custom1 custom2" discard="1" width="3.65"/>
    <type id="stop" priority="1" speed="13.89" disallow="pedestrian tram rail_urban rail rail_electric rail_fast ship" width="3.65"/>
    <type id="tram" priority="2" speed="13.89" allow="tram" width="3.65"/>

    <edge id=":1008_0" function="internal">
        <lane id=":1008_0_0" index="0" disallow="pedestrian tram rail_urban rail rail_electric rail_fast ship" speed="7.54" length="12.45" width="3.50" shape="757.82,553.48,0.02 757.30,550.29,0.02 755.76,548.03,0.02 753.20,546.69,0.02 749.63,546.27,0.02">
            <param key="origId" value="1012_1"/>
            <param key="signalID" value="1636"/>
        </lane>
    </edge>
    <edge id=":1008_1" function="internal">
        <lane id=":1008_1_0" index="0" disallow="pedestrian tram rail_urban rail rail_electric rail_fast ship" speed="9.24" length="18.98" width="3.50" shape="757.82,553.48,0.02 758.59,548.72,0.02 760.94,545.29,0.02 764.87,543.20,0.02 770.37,542.43,0.02">
            <param key="origId" value="1024_1"/>
            <param key="signalID" value="1634"/>
        </lane>
    </edge>
    <edge id=":1008_2" function="internal">
        <lane id=":1008_2_0" index="0" disallow="all" speed="1.39" length="20.81" width="0.50" shape="770.46,547.93,0.02 749.65,548.27,0.02">
            <param key="origId" value="1043_2"/>
        </lane>
    </edge>
    <edge id=":1008_3" function="internal">
        <lane id=":1008_3_0" index="0" disallow="pedestrian tram rail_urban rail rail_electric rail_fast ship" speed="7.85" length="13.40" width="3.50" shape="770.43,545.93,0.02 766.43,546.46,0.02 763.59,547.89,0.02 761.88,550.22,0.02 761.32,553.46,0.02">
            <param key="origId" value="1028_1"/>
            <param key="signalID" value="1636"/>
        </lane>
    </edge>
    <edge id=":1008_4" function="internal">
        <lane id=":1008_4_0" index="0" disallow="pedestrian tram rail_urban rail rail_electric rail_fast ship" speed="13.89" length="20.80" width="3.50" shape="770.43,545.93,0.02 749.63,546.27,0.02">
            <param key="origId" value="1043_1"/>
            <param key="signalID" value="1634"/>
        </lane>
    </edge>
    <edge id=":1008_5" function="internal">
        <lane id=":1008_5_0" index="0" disallow="all" speed="1.39" length="20.78" width="0.50" shape="749.57,540.77,0.02 770.34,540.43,0.02">
            <param key="origId" value="1044_-2"/>
            <param key="signalID" value="1635"/>
        </lane>
        <lane id=":1008_5_1" index="1" disallow="pedestrian tram rail_urban rail rail_electric rail_fast ship" speed="13.89" length="20.78" width="3.50" shape="749.59,542.77,0.02 770.37,542.43,0.02">
            <param key="origId" value="1044_-1"/>
            <param key="signalID" value="1635"/>
        </lane>
    </edge>
    <edge id=":1008_7" function="internal">
        <lane id=":1008_7_0" index="0" disallow="pedestrian tram rail_urban rail rail_electric rail_fast ship" speed="8.97" length="18.12" width="3.50" shape="749.59,542.77,0.02 754.71,543.39,0.02 758.37,545.38,0.02 760.57,548.74,0.02 761.32,553.46,0.02">
            <param key="origId" value="1015_-1"/>
            <param key="signalID" value="1635"/>
        </lane>
    </edge>
    <edge id=":1061_0" function="internal">
        <lane id=":1061_0_0" index="0" disallow="all" speed="1.39" length="68.18" width="3.50" shape="539.85,293.67 532.36,303.00 526.93,316.80 523.56,335.08 522.27,357.83">
            <param key="origId" value="1080_3"/>
        </lane>
        <lane id=":1061_0_1" index="1" disallow="pedestrian tram rail_urban rail rail_electric rail_fast ship" speed="13.89" length="71.19" width="3.50" shape="537.62,290.98 529.57,300.86 523.75,315.29 520.15,334.27 518.77,357.80">
            <param key="origId" value="1080_2"/>
        </lane>
    </edge>
    <edge id=":1061_2" function="internal">
        <lane id=":1061_2_0" index="0" disallow="all" speed="1.39" length="75.35" width="3.50" shape="522.65,282.42 522.27,357.83">
            <param key="origId" value="1072_-5"/>
        </lane>
        <lane id=":1061_2_1" index="1" disallow="pedestrian tram rail_urban rail rail_electric rail_fast ship" speed="13.89" length="75.35" width="3.50" shape="519.15,282.42 518.77,357.80">
            <param key="origId" value="1072_-4"/>
        </lane>
        <lane id=":1061_2_2" index="2" disallow="pedestrian tram rail_urban rail rail_electric rail_fast ship" speed="13.89" length="75.35" width="3.50" shape="515.65,282.42 515.27,357.76">
            <param key="origId" value="1072_-3"/>
        </lane>
        <lane id=":1061_2_3" index="3" disallow="pedestrian tram rail_urban rail rail_electric rail_fast ship" speed="13.89" length="75.35" width="3.50" shape="512.15,282.42 511.77,357.73">
            <param key="origId" value="1072_-2"/>
        </lane>
        <lane id=":1061_2_4" index="4" disallow="pedestrian tram rail_urban rail rail_electric rail_fast ship" speed="13.89" length="75.35" width="3.50" shape="508.65,282.42 508.27,357.69">
            <param key="origId" value="1072_-1"/>
        </lane>
    </edge>
    <edge id=":1061_7" function="internal">
        <lane id=":1061_7_0" index="0" disallow="all" speed="1.39" length="68.00" width="3.50" shape="483.77,357.44 482.90,334.80 479.81,316.57 474.48,302.76 466.93,293.37">
            <param key="origId" value="1076_7"/>
        </lane>
    </edge>
    <edge id=":1061_8" function="internal">
        <lane id=":1061_8_0" index="0" disallow="all" speed="1.39" length="75.02" width="3.50" shape="483.77,357.44 484.15,282.42">
            <param key="origId" value="1073_7"/>
        </lane>
    </edge>
    <edge id=":1061_9" function="internal">
        <lane id=":1061_9_0" index="0" disallow="pedestrian tram rail_urban rail rail_electric rail_fast ship" speed="13.89" length="18.87" width="3.50" shape="487.27,357.48 486.52,338.63">
            <param key="origId" value="1076_6"/>
        </lane>
    </edge>
    <edge id=":1061_10" function="internal">
        <lane id=":1061_10_0" index="0" disallow="pedestrian tram rail_urban rail rail_electric rail_fast ship" speed="13.89" length="75.15" width="3.50" shape="487.27,357.48 487.65,282.42">
            <param key="origId" value="1073_6"/>
        </lane>
        <lane id=":1061_10_1" index="1" disallow="pedestrian tram rail_urban rail rail_electric rail_fast ship" speed="13.89" length="75.15" width="3.50" shape="490.77,357.51 491.15,282.42">
            <param key="origId" value="1073_5"/>
        </lane>
        <lane id=":1061_10_2" index="2" disallow="pedestrian tram rail_urban rail rail_electric rail_fast ship" speed="13.89" length="75.15" width="3.50" shape="494.27,357.55 494.65,282.42">
            <param key="origId" value="1073_4"/>
        </lane>
        <lane id=":1061_10_3" index="3" disallow="pedestrian tram rail_urban rail rail_electric rail_fast ship" speed="13.89" length="75.15" width="3.50" shape="497.77,357.58 498.15,282.42">
            <param key="origId" value="1073_3"/>
        </lane>
        <lane id=":1061_10_4" index="4" disallow="all" speed="1.39" length="75.15" width="3.50" shape="501.27,357.62 501.65,282.42">
            <param key="origId" value="1073_2"/>
        </lane>
        <lane id=":1061_10_5" index="5" disallow="all" speed="1.39" length="75.15" width="3.50" shape="504.77,357.66 505.15,282.42">
            <param key="origId" value="1073_1"/>
        </lane>
    </edge>
    <edge id=":1061_16" function="internal">
        <lane id=":1061_16_0" index="0" disallow="pedestrian tram rail_urban rail rail_electric rail_fast ship" speed="13.89" length="52.23" width="3.50" shape="486.52,338.63 486.33,334.04 483.00,315.09 477.28,300.63 469.16,290.67">
            <param key="origId" value="1076_6"/>
        </lane>
    </edge>
    <edge id=":1082_0" function="internal">
        <lane id=":1082_0_0" index="0" disallow="all" speed="1.39" length="56.00" width="3.50" shape="620.02,440.07,10.31 611.14,431.69,10.46 599.73,425.70,10.61 585.79,422.11,10.79 569.33,420.91,10.99">
            <param key="origId" value="1097_3"/>
        </lane>
        <lane id=":1082_0_1" index="1" disallow="pedestrian tram rail_urban rail rail_electric rail_fast ship" speed="13.89" length="59.15" width="3.50" shape="622.76,437.90,10.31 613.31,428.93,10.46 601.26,422.53,10.62 586.60,418.69,10.79 569.33,417.41,10.99">
            <param key="origId" value="1097_2"/>
        </lane>
    </edge>
    <edge id=":1082_2" function="internal">
        <lane id=":1082_2_0" index="0" disallow="all" speed="1.39" length="62.29" width="3.50" shape="631.75,420.26,10.05 569.33,420.91,10.99">
            <param key="origId" value="1091_-5"/>
        </lane>
        <lane id=":1082_2_1" index="1" disallow="pedestrian tram rail_urban rail rail_electric rail_fast ship" speed="13.89" length="62.29" width="3.50" shape="631.68,416.76,10.05 569.33,417.41,10.99">
            <param key="origId" value="1091_-4"/>
        </lane>
        <lane id=":1082_2_2" index="2" disallow="pedestrian tram rail_urban rail rail_electric rail_fast ship" speed="13.89" length="62.29" width="3.50" shape="631.61,413.26,10.05 569.33,413.91,10.99">
            <param key="origId" value="1091_-3"/>
        </lane>
        <lane id=":1082_2_3" index="3" disallow="pedestrian tram rail_urban rail rail_electric rail_fast ship" speed="13.89" length="62.29" width="3.50" shape="631.54,409.76,10.05 569.33,410.41,10.99">
            <param key="origId" value="1091_-2"/>
        </lane>
        <lane id=":1082_2_4" index="4" disallow="pedestrian tram rail_urban rail rail_electric rail_fast ship" speed="13.89" length="62.29" width="3.50" shape="631.47,406.26,10.05 569.33,406.91,10.99">
            <param key="origId" value="1091_-1"/>
        </lane>
    </edge>
    <edge id=":1082_7" function="internal">
        <lane id=":1082_7_0" index="0" disallow="all" speed="1.39" length="56.10" width="3.50" shape="569.33,382.41,10.99 586.05,381.16,10.68 599.99,377.43,10.41 611.16,371.20,10.17 619.55,362.48,9.95">
            <param key="origId" value="1101_7"/>
        </lane>
    </edge>
    <edge id=":1082_8" function="internal">
        <lane id=":1082_8_0" index="0" disallow="all" speed="1.39" length="61.65" width="3.50" shape="569.33,382.41,10.99 630.97,381.76,10.05">
            <param key="origId" value="1092_7"/>
        </lane>
    </edge>
    <edge id=":1082_9" function="internal">
        <lane id=":1082_9_0" index="0" disallow="pedestrian tram rail_urban rail rail_electric rail_fast ship" speed="13.89" length="13.01" width="3.50" shape="569.33,385.91,10.99 582.30,384.92,10.76">
            <param key="origId" value="1101_6"/>
        </lane>
    </edge>
    <edge id=":1082_10" function="internal">
        <lane id=":1082_10_0" index="0" disallow="pedestrian tram rail_urban rail rail_electric rail_fast ship" speed="13.89" length="61.90" width="3.50" shape="569.33,385.91,10.99 631.04,385.26,10.05">
            <param key="origId" value="1092_6"/>
        </lane>
        <lane id=":1082_10_1" index="1" disallow="pedestrian tram rail_urban rail rail_electric rail_fast ship" speed="13.89" length="61.90" width="3.50" shape="569.33,389.41,10.99 631.11,388.76,10.05">
            <param key="origId" value="1092_5"/>
        </lane>
        <lane id=":1082_10_2" index="2" disallow="pedestrian tram rail_urban rail rail_electric rail_fast ship" speed="13.89" length="61.90" width="3.50" shape="569.33,392.91,10.99 631.18,392.26,10.05">
            <param key="origId" value="1092_4"/>
        </lane>
        <lane id=":1082_10_3" index="3" disallow="pedestrian tram rail_urban rail rail_electric rail_fast ship" speed="13.89" length="61.90" width="3.50" shape="569.33,396.41,10.99 631.25,395.76,10.05">
            <param key="origId" value="1092_3"/>
        </lane>
        <lane id=":1082_10_4" index="4" disallow="all" speed="1.39" length="61.90" width="3.50" shape="569.33,399.91,10.99 631.32,399.26,10.05">
            <param key="origId" value="1092_2"/>
        </lane>
        <lane id=":1082_10_5" index="5" disallow="all" speed="1.39" length="61.90" width="3.50" shape="569.33,403.41,10.99 631.39,402.76,10.05">
            <param key="origId" value="1092_1"/>
        </lane>
    </edge>
    <edge id=":1082_16" function="internal">
        <lane id=":1082_16_0" index="0" disallow="pedestrian tram rail_urban rail rail_electric rail_fast ship" speed="13.89" length="46.44" width="3.50" shape="582.30,384.92,10.76 586.91,384.57,10.68 601.62,380.56,10.41 613.45,373.86,10.18 622.41,364.49,9.95">
            <param key="origId" value="1101_6"/>
        </lane>
    </edge>
    <edge id=":1103_0" function="internal">
        <lane id=":1103_0_0" index="0" disallow="pedestrian tram rail_urban rail rail_electric rail_fast ship" speed="8.33" length="14.92" width="3.50" shape="630.79,606.58,0.04 630.05,602.47,0.08 628.25,599.55,0.12 625.39,597.80,0.16 621.47,597.24,0.20">
            <param key="origId" value="1141_-1"/>
            <param key="signalID" value="1639"/>
        </lane>
    </edge>
    <edge id=":1103_1" function="internal">
        <lane id=":1103_1_0" index="0" disallow="pedestrian tram rail_urban rail rail_electric rail_fast ship" speed="9.63" length="21.56" width="3.50" shape="630.79,606.58,0.04 631.42,600.93,0.08 633.89,596.89,0.12 638.19,594.45,0.15 644.33,593.61,0.20">
            <param key="origId" value="1133_-1"/>
            <param key="signalID" value="1639"/>
        </lane>
    </edge>
    <edge id=":1103_2" function="internal">
        <lane id=":1103_2_0" index="0" disallow="all" speed="1.39" length="22.88" width="0.50" shape="644.36,599.11,0.20 621.48,599.24,0.20">
            <param key="origId" value="1115_2"/>
        </lane>
    </edge>
    <edge id=":1103_3" function="internal">
        <lane id=":1103_3_0" index="0" disallow="pedestrian tram rail_urban rail rail_electric rail_fast ship" speed="8.31" length="15.76" width="3.50" shape="644.35,597.11,0.20 639.79,597.71,0.15 636.60,599.47,0.12 634.76,602.37,0.08 634.29,606.42,0.04">
            <param key="origId" value="1122_1"/>
            <param key="signalID" value="1637"/>
        </lane>
    </edge>
    <edge id=":1103_4" function="internal">
        <lane id=":1103_4_0" index="0" disallow="pedestrian tram rail_urban rail rail_electric rail_fast ship" speed="13.89" length="22.88" width="3.50" shape="644.35,597.11,0.20 621.47,597.24,0.20">
            <param key="origId" value="1115_1"/>
            <param key="signalID" value="1637"/>
        </lane>
    </edge>
    <edge id=":1103_5" function="internal">
        <lane id=":1103_5_0" index="0" disallow="all" speed="1.39" length="22.88" width="0.50" shape="621.44,591.74,0.20 644.32,591.61,0.20">
            <param key="origId" value="1114_-2"/>
            <param key="signalID" value="1638"/>
        </lane>
        <lane id=":1103_5_1" index="1" disallow="pedestrian tram rail_urban rail rail_electric rail_fast ship" speed="13.89" length="22.88" width="3.50" shape="621.45,593.74,0.20 644.33,593.61,0.20">
            <param key="origId" value="1114_-1"/>
            <param key="signalID" value="1638"/>
        </lane>
    </edge>
    <edge id=":1103_7" function="internal">
        <lane id=":1103_7_0" index="0" disallow="pedestrian tram rail_urban rail rail_electric rail_fast ship" speed="9.65" length="20.41" width="3.50" shape="621.45,593.74,0.20 626.86,594.51,0.16 630.80,596.88,0.12 633.27,600.85,0.08 634.29,606.42,0.04">
            <param key="origId" value="1148_-1"/>
            <param key="signalID" value="1637"/>
        </lane>
    </edge>
    <edge id=":1159_0" function="internal">
        <lane id=":1159_0_0" index="0" disallow="all" speed="1.39" length="79.73" width="3.50" shape="502.25,725.59 490.75,704.06 480.09,685.88 470.17,670.53 460.89,657.53">
            <param key="origId" value="1162_7"/>
        </lane>
    </edge>
    <edge id=":1159_1" function="internal">
        <lane id=":1159_1_0" index="0" disallow="all" speed="1.39" length="82.61" width="3.50" shape="502.25,725.59 492.51,704.99 486.60,687.44 483.60,669.16 482.61,646.40">
            <param key="origId" value="1174_7"/>
        </lane>
    </edge>
    <edge id=":1159_2" function="internal">
        <lane id=":1159_2_0" index="0" disallow="pedestrian tram rail_urban rail rail_electric rail_fast ship" speed="13.89" length="80.53" width="3.50" shape="505.37,723.99 493.81,702.39 483.05,684.03 473.02,668.51 463.69,655.43">
            <param key="origId" value="1162_6"/>
        </lane>
        <lane id=":1159_2_1" index="1" disallow="pedestrian tram rail_urban rail rail_electric rail_fast ship" speed="13.89" length="80.53" width="3.50" shape="505.37,723.99 494.25,702.06 484.45,682.98 475.38,666.74 466.49,653.33">
            <param key="origId" value="1161_1"/>
        </lane>
    </edge>
    <edge id=":1159_4" function="internal">
        <lane id=":1159_4_0" index="0" disallow="pedestrian tram rail_urban rail rail_electric rail_fast ship" speed="13.89" length="81.02" width="3.50" shape="505.37,723.99 495.68,703.64 489.91,686.62 487.05,668.87 486.11,646.36">
            <param key="origId" value="1174_6"/>
        </lane>
        <lane id=":1159_4_1" index="1" disallow="pedestrian tram rail_urban rail rail_electric rail_fast ship" speed="13.89" length="79.43" width="3.50" shape="508.48,722.40 498.86,702.29 493.22,685.80 490.49,668.59 489.61,646.32">
            <param key="origId" value="1174_5"/>
        </lane>
        <lane id=":1159_4_2" index="2" disallow="pedestrian tram rail_urban rail rail_electric rail_fast ship" speed="13.89" length="77.85" width="3.50" shape="511.60,720.81 502.04,700.94 496.53,684.98 493.93,668.31 493.11,646.28">
            <param key="origId" value="1174_4"/>
        </lane>
        <lane id=":1159_4_3" index="3" disallow="pedestrian tram rail_urban rail rail_electric rail_fast ship" speed="13.89" length="76.27" width="3.50" shape="514.71,719.21 505.22,699.59 499.84,684.16 497.37,668.02 496.61,646.24">
            <param key="origId" value="1174_3"/>
        </lane>
        <lane id=":1159_4_4" index="4" disallow="all" speed="1.39" length="74.68" width="3.50" shape="517.83,717.62 508.39,698.24 503.15,683.35 500.81,667.74 500.11,646.20">
            <param key="origId" value="1174_2"/>
        </lane>
        <lane id=":1159_4_5" index="5" disallow="all" speed="1.39" length="73.10" width="3.50" shape="520.95,716.03 511.57,696.88 506.46,682.53 504.25,667.45 503.61,646.15">
            <param key="origId" value="1174_1"/>
        </lane>
    </edge>
    <edge id=":1159_10" function="internal">
        <lane id=":1159_10_0" index="0" disallow="all" speed="1.39" length="67.85" width="3.50" shape="521.11,645.95 522.05,663.07 524.67,678.03 529.36,692.48 536.53,708.06">
            <param key="origId" value="1173_-5"/>
        </lane>
        <lane id=":1159_10_1" index="1" disallow="pedestrian tram rail_urban rail rail_electric rail_fast ship" speed="13.89" length="67.85" width="3.50" shape="517.61,645.99 518.61,663.35 521.36,678.85 526.19,693.83 533.41,709.65">
            <param key="origId" value="1173_-4"/>
        </lane>
        <lane id=":1159_10_2" index="2" disallow="pedestrian tram rail_urban rail rail_electric rail_fast ship" speed="13.89" length="67.85" width="3.50" shape="514.11,646.03 515.16,663.64 518.05,679.66 523.01,695.18 530.29,711.25">
            <param key="origId" value="1173_-3"/>
        </lane>
        <lane id=":1159_10_3" index="3" disallow="pedestrian tram rail_urban rail rail_electric rail_fast ship" speed="13.89" length="67.85" width="3.50" shape="510.61,646.07 511.72,663.92 514.74,680.48 519.83,696.53 527.18,712.84">
            <param key="origId" value="1173_-2"/>
        </lane>
        <lane id=":1159_10_4" index="4" disallow="pedestrian tram rail_urban rail rail_electric rail_fast ship" speed="13.89" length="67.85" width="3.50" shape="507.11,646.11 508.28,664.20 511.43,681.30 516.65,697.88 524.06,714.43">
            <param key="origId" value="1173_-1"/>
        </lane>
    </edge>
    <edge id=":1176_0" function="internal">
        <lane id=":1176_0_0" index="0" disallow="all" speed="1.39" length="43.49" width="3.50" shape="435.40,421.40,9.84 423.58,422.46,9.69 413.24,425.65,9.55 404.38,430.96,9.42 397.01,438.40,9.29">
            <param key="origId" value="1191_-5"/>
        </lane>
    </edge>
    <edge id=":1176_1" function="internal">
        <lane id=":1176_1_0" index="0" disallow="all" speed="1.39" length="53.21" width="3.50" shape="435.40,421.40,9.84 382.20,421.47,8.75">
            <param key="origId" value="1184_-5"/>
        </lane>
    </edge>
    <edge id=":1176_2" function="internal">
        <lane id=":1176_2_0" index="0" disallow="pedestrian tram rail_urban rail rail_electric rail_fast ship" speed="13.89" length="9.59" width="3.50" shape="435.40,417.90,9.84 425.85,418.77,9.73">
            <param key="origId" value="1191_-4"/>
        </lane>
    </edge>
    <edge id=":1176_3" function="internal">
        <lane id=":1176_3_0" index="0" disallow="pedestrian tram rail_urban rail rail_electric rail_fast ship" speed="13.89" length="53.21" width="3.50" shape="435.40,417.90,9.84 382.20,417.97,8.75">
            <param key="origId" value="1184_-4"/>
        </lane>
        <lane id=":1176_3_1" index="1" disallow="pedestrian tram rail_urban rail rail_electric rail_fast ship" speed="13.89" length="53.21" width="3.50" shape="435.40,414.40,9.84 382.20,414.47,8.75">
            <param key="origId" value="1184_-3"/>
        </lane>
        <lane id=":1176_3_2" index="2" disallow="pedestrian tram rail_urban rail rail_electric rail_fast ship" speed="13.89" length="53.21" width="3.50" shape="435.40,410.90,9.84 382.20,410.97,8.75">
            <param key="origId" value="1184_-2"/>
        </lane>
        <lane id=":1176_3_3" index="3" disallow="pedestrian tram rail_urban rail rail_electric rail_fast ship" speed="13.89" length="53.21" width="3.50" shape="435.40,407.40,9.84 382.20,407.47,8.75">
            <param key="origId" value="1184_-1"/>
        </lane>
    </edge>
    <edge id=":1176_16" function="internal">
        <lane id=":1176_16_0" index="0" disallow="pedestrian tram rail_urban rail rail_electric rail_fast ship" speed="13.89" length="37.09" width="3.50" shape="425.85,418.77,9.73 422.76,419.05,9.69 411.69,422.49,9.55 402.19,428.22,9.42 394.25,436.25,9.29">
            <param key="origId" value="1191_-4"/>
        </lane>
    </edge>
    <edge id=":1176_7" function="internal">
        <lane id=":1176_7_0" index="0" disallow="all" speed="1.39" length="47.09" width="3.50" shape="393.17,365.67,8.70 401.25,373.21,8.97 410.98,378.59,9.24 422.37,381.82,9.52 435.40,382.90,9.84">
            <param key="origId" value="1194_3"/>
        </lane>
        <lane id=":1176_7_1" index="1" disallow="pedestrian tram rail_urban rail rail_electric rail_fast ship" speed="13.89" length="50.14" width="3.50" shape="390.50,367.93,8.70 399.14,376.01,8.97 409.50,381.78,9.24 421.59,385.25,9.52 435.40,386.40,9.84">
            <param key="origId" value="1194_2"/>
        </lane>
    </edge>
    <edge id=":1176_9" function="internal">
        <lane id=":1176_9_0" index="0" disallow="all" speed="1.39" length="53.21" width="3.50" shape="382.20,382.97,8.75 435.40,382.90,9.84">
            <param key="origId" value="1185_7"/>
        </lane>
        <lane id=":1176_9_1" index="1" disallow="pedestrian tram rail_urban rail rail_electric rail_fast ship" speed="13.89" length="53.21" width="3.50" shape="382.20,386.47,8.75 435.40,386.40,9.84">
            <param key="origId" value="1185_6"/>
        </lane>
        <lane id=":1176_9_2" index="2" disallow="pedestrian tram rail_urban rail rail_electric rail_fast ship" speed="13.89" length="53.21" width="3.50" shape="382.20,389.97,8.75 435.40,389.90,9.84">
            <param key="origId" value="1185_5"/>
        </lane>
        <lane id=":1176_9_3" index="3" disallow="pedestrian tram rail_urban rail rail_electric rail_fast ship" speed="13.89" length="53.21" width="3.50" shape="382.20,393.47,8.75 435.40,393.40,9.84">
            <param key="origId" value="1185_4"/>
        </lane>
        <lane id=":1176_9_4" index="4" disallow="pedestrian tram rail_urban rail rail_electric rail_fast ship" speed="13.89" length="53.21" width="3.50" shape="382.20,396.97,8.75 435.40,396.90,9.84">
            <param key="origId" value="1185_3"/>
        </lane>
        <lane id=":1176_9_5" index="5" disallow="all" speed="1.39" length="53.21" width="3.50" shape="382.20,400.47,8.75 435.40,400.40,9.84">
            <param key="origId" value="1185_2"/>
        </lane>
        <lane id=":1176_9_6" index="6" disallow="all" speed="1.39" length="53.21" width="3.50" shape="382.20,403.97,8.75 435.40,403.90,9.84">
            <param key="origId" value="1185_1"/>
        </lane>
    </edge>
    <edge id=":1197_0" function="internal">
        <lane id=":1197_0_0" index="0" disallow="pedestrian tram rail_urban rail rail_electric rail_fast ship" speed="8.43" length="15.77" width="3.50" shape="561.67,606.45,0.03 560.98,602.57,0.07 558.97,599.81,0.11 555.63,598.17,0.15 550.97,597.64,0.20">
            <param key="origId" value="1239_-1"/>
            <param key="signalID" value="1641"/>
        </lane>
    </edge>
    <edge id=":1197_1" function="internal">
        <lane id=":1197_1_0" index="0" disallow="pedestrian tram rail_urban rail rail_electric rail_fast ship" speed="10.07" length="22.99" width="3.50" shape="561.67,606.45,0.03 562.64,601.03,0.07 565.62,597.15,0.11 570.62,594.80,0.15 577.64,593.99,0.20">
            <param key="origId" value="1217_-1"/>
            <param key="signalID" value="1641"/>
        </lane>
    </edge>
    <edge id=":1197_2" function="internal">