<?xml version="1.0" encoding="UTF-8"?>

<!-- generated on 2023-11-06 14:44:39 by Eclipse SUMO netedit Version 1.18.0
-->

<routes xmlns:xsi="http://www.w3.org/2001/XMLSchema-instance" xsi:noNamespaceSchemaLocation="http://sumo.dlr.de/xsd/routes_file.xsd">
    <!-- Routes -->
    <route id="r_0" edges="11 10 17"/>
    <!--This is for keeping the simulation alive-->
    <vehicle id="v_3" depart="999.00" route="r_0"/>
</routes>
