<?xml version="1.0" encoding="UTF-8"?>

<!-- generated on 2023-05-23 13:36:19 by Eclipse SUMO netedit Version 1.16.0
-->

<routes xmlns:xsi="http://www.w3.org/2001/XMLSchema-instance" xsi:noNamespaceSchemaLocation="http://sumo.dlr.de/xsd/routes_file.xsd">
    <!-- Routes -->
    <route id="r_0" edges="-7 -8 -9 -10 -11 -12 -13 -14 -36 -37 -38 -39 33 47 44 39 38 37 36 35"/>
    <!-- Vehicles, persons and containers (sorted by depart) -->
    <vehicle id="v_0" depart="999.00" route="r_0"/>
</routes>