<?xml version="1.0" encoding="UTF-8"?>

<!-- generated on 2023-11-06 15:52:06 by Eclipse SUMO netedit Version 1.18.0
-->

<additional xmlns:xsi="http://www.w3.org/2001/XMLSchema-instance" xsi:noNamespaceSchemaLocation="http://sumo.dlr.de/xsd/additional_file.xsd">
    <!-- StoppingPlaces -->
    <tlLogic id="483" type="static" programID="test">
    	<phase duration="100" state="rGrGGrrrGrGGrrrr"/>
    </tlLogic>
    <tlLogic id="785" type="static" programID="test">
    	<phase duration="100" state="GGrGGrGrrGrrrrrr"/>
    </tlLogic>
</additional>
