<configuration>
	<traci_server>
      	<num-clients value="2" />
    </traci_server>
	<input>
		<net-file value="tiergarten.net.xml" />
	</input>
	<time>
		<begin value="0" />
		<end value="10000" />
	</time>
</configuration>
