<?xml version="1.0" encoding="UTF-8"?>

<net xmlns:xsi="http://www.w3.org/2001/XMLSchema-instance" version="1.6" junctionCornerDetail="5" rectangularLaneCut="true" limitTurnSpeed="5.50" xsi:noNamespaceSchemaLocation="http://sumo.dlr.de/xsd/net_file.xsd">
<location netOffset="271.72,665.20" convBoundary="0.00,0.00,546.27,1402.99" origBoundary="395635.35,5826456.24,396181.62,5827859.23" projParameter="!"/>

    <type id="bidirectional" priority="1" speed="1.39" disallow="pedestrian tram rail_urban rail rail_electric rail_fast ship" width="3.65"/>
    <type id="biking" priority="-1" speed="5.56" allow="bicycle" width="1.50"/>
    <type id="border" priority="0" speed="1.39" disallow="all" discard="0" width="0.10"/>
    <type id="driving" priority="1" speed="13.89" disallow="pedestrian tram rail_urban rail rail_electric rail_fast ship" width="3.65"/>
    <type id="entry" priority="1" speed="22.22" disallow="pedestrian tram rail_urban rail rail_electric rail_fast ship" width="3.65"/>
    <type id="exit" priority="1" speed="22.22" disallow="pedestrian tram rail_urban rail rail_electric rail_fast ship" width="3.65"/>
    <type id="median" priority="0" speed="1.39" disallow="all" discard="0" width="0.10"/>
    <type id="mwyEntry" priority="1" speed="22.22" allow="private emergency authority army vip passenger hov taxi bus coach delivery truck trailer motorcycle evehicle custom1 custom2" width="3.65"/>
    <type id="mwyExit" priority="1" speed="22.22" allow="private emergency authority army vip passenger hov taxi bus coach delivery truck trailer motorcycle evehicle custom1 custom2" width="3.65"/>
    <type id="none" priority="0" speed="1.39" disallow="all" discard="0" width="1.00"/>
    <type id="offRamp" priority="1" speed="22.22" allow="private emergency authority army vip passenger hov taxi bus coach delivery truck trailer motorcycle evehicle custom1 custom2" width="3.65"/>
    <type id="onRamp" priority="1" speed="22.22" allow="private emergency authority army vip passenger hov taxi bus coach delivery truck trailer motorcycle evehicle custom1 custom2" width="3.65"/>
    <type id="parking" priority="1" speed="1.39" disallow="pedestrian tram rail_urban rail rail_electric rail_fast ship" width="2.50"/>
    <type id="rail" priority="3" speed="33.33" allow="rail_urban rail rail_electric rail_fast" width="3.65"/>
    <type id="restricted" priority="0" speed="13.89" disallow="all" width="3.65"/>
    <type id="roadWorks" priority="0" speed="1.39" allow="authority" width="3.65"/>
    <type id="shoulder" priority="0" speed="1.39" disallow="all" discard="0" width="1.00"/>
    <type id="sidewalk" priority="-2" speed="2.78" allow="pedestrian" width="2.50"/>
    <type id="special1" priority="1" speed="22.22" allow="custom1" discard="0" width="3.65"/>
    <type id="special2" priority="1" speed="22.22" allow="custom2" discard="0" width="3.65"/>
    <type id="special3" priority="1" speed="22.22" allow="custom1 custom2" discard="0" width="3.65"/>
    <type id="stop" priority="1" speed="13.89" disallow="pedestrian tram rail_urban rail rail_electric rail_fast ship" width="3.65"/>
    <type id="tram" priority="2" speed="13.89" allow="tram" width="3.65"/>

    <edge id=":1.5.85_0" function="internal">
        <lane id=":1.5.85_0_0" index="0" disallow="pedestrian tram rail_urban rail rail_electric rail_fast ship" speed="17.88" length="2.93" width="2.37" shape="161.25,1292.11,36.02 158.41,1292.86,36.15"/>
    </edge>
    <edge id=":1.5.85_1" function="internal">
        <lane id=":1.5.85_1_0" index="0" disallow="pedestrian tram rail_urban rail rail_electric rail_fast ship" speed="17.88" length="2.97" width="3.46" shape="157.49,1290.08,36.15 160.31,1289.16,36.02"/>
    </edge>
    <edge id=":101.begin_0" function="internal">
        <lane id=":101.begin_0_0" index="0" disallow="pedestrian tram rail_urban rail rail_electric rail_fast ship" speed="4.67" length="7.58" width="5.03" shape="76.98,699.72,39.84 76.53,702.02,39.84 75.58,703.11,39.84 74.13,703.01,39.84 72.19,701.72,39.84"/>
    </edge>
    <edge id=":102.10_0" function="internal">
        <lane id=":102.10_0_0" index="0" disallow="all" speed="14.53" length="2.90" width="0.19" shape="290.17,1035.38,37.05 287.38,1034.58,37.07"/>
        <lane id=":102.10_0_1" index="1" disallow="pedestrian tram rail_urban rail rail_electric rail_fast ship" speed="14.53" length="2.90" width="2.41" shape="290.55,1034.18,37.05 287.76,1033.34,37.07"/>
    </edge>
    <edge id=":102.10_2" function="internal">
        <lane id=":102.10_2_0" index="0" disallow="all" speed="14.53" length="2.93" width="0.22" shape="289.37,1028.08,37.07 292.18,1028.92,37.05"/>
        <lane id=":102.10_2_1" index="1" disallow="pedestrian tram rail_urban rail rail_electric rail_fast ship" speed="14.53" length="2.93" width="4.23" shape="288.73,1030.18,37.07 291.52,1031.05,37.05"/>
    </edge>
    <edge id=":112.begin_0" function="internal">
        <lane id=":112.begin_0_0" index="0" disallow="pedestrian tram rail_urban rail rail_electric rail_fast ship" speed="3.80" length="5.07" width="3.50" shape="159.57,537.30,42.50 159.90,538.83,42.50 159.60,539.75,42.50 158.69,540.07,42.50 157.15,539.78,42.50"/>
    </edge>
    <edge id=":113.0.20_0" function="internal">
        <lane id=":113.0.20_0_0" index="0" disallow="pedestrian tram rail_urban rail rail_electric rail_fast ship" speed="17.88" length="1.20" width="3.38" shape="187.33,1319.47,35.05 186.82,1318.38,35.04"/>
    </edge>
    <edge id=":113.0.20_1" function="internal">
        <lane id=":113.0.20_1_0" index="0" disallow="pedestrian tram rail_urban rail rail_electric rail_fast ship" speed="17.88" length="1.16" width="3.46" shape="189.97,1317.06,35.04 190.46,1318.11,35.05"/>
    </edge>
    <edge id=":118.0_0" function="internal">
        <lane id=":118.0_0_0" index="0" disallow="pedestrian tram rail_urban rail rail_electric rail_fast ship" speed="11.18" length="6.95" width="3.03" shape="249.79,1201.28,37.38 247.89,1202.10,37.35 246.55,1202.66,37.33 245.38,1203.44,37.31 244.02,1204.92,37.29"/>
    </edge>
    <edge id=":118.0_1" function="internal">
        <lane id=":118.0_1_0" index="0" disallow="pedestrian tram rail_urban rail rail_electric rail_fast ship" speed="11.18" length="8.32" width="3.26" shape="241.72,1203.10,37.29 243.30,1201.23,37.31 244.58,1200.12,37.33 246.06,1199.27,37.35 248.29,1198.20,37.37"/>
    </edge>
    <edge id=":121.17.48_0" function="internal">
        <lane id=":121.17.48_0_0" index="0" disallow="pedestrian tram rail_urban rail rail_electric rail_fast ship" speed="17.88" length="2.94" width="3.63" shape="343.56,1159.53,38.44 340.90,1160.78,38.34"/>
    </edge>
    <edge id=":121.17.48_1" function="internal">
        <lane id=":121.17.48_1_0" index="0" disallow="all" speed="17.88" length="2.98" width="0.36" shape="338.84,1155.91,38.34 341.65,1154.91,38.44"/>
        <lane id=":121.17.48_1_1" index="1" disallow="pedestrian tram rail_urban rail rail_electric rail_fast ship" speed="17.88" length="2.98" width="3.13" shape="339.54,1157.56,38.34 342.32,1156.52,38.44"/>
    </edge>
    <edge id=":123.119_0" function="internal">
        <lane id=":123.119_0_0" index="0" disallow="all" speed="14.53" length="2.97" width="0.22" shape="161.14,1148.28,36.17 159.48,1150.71,36.24"/>
        <lane id=":123.119_0_1" index="1" disallow="pedestrian tram rail_urban rail rail_electric rail_fast ship" speed="14.53" length="2.97" width="3.05" shape="159.82,1147.33,36.17 158.12,1149.80,36.24"/>
    </edge>
    <edge id=":123.119_2" function="internal">
        <lane id=":123.119_2_0" index="0" disallow="all" speed="14.53" length="3.11" width="0.23" shape="154.35,1147.26,36.24 156.15,1144.69,36.17"/>
        <lane id=":123.119_2_1" index="1" disallow="pedestrian tram rail_urban rail rail_electric rail_fast ship" speed="14.53" length="3.11" width="2.89" shape="155.65,1148.13,36.24 157.41,1145.60,36.17"/>
    </edge>
    <edge id=":124.110_0" function="internal">
        <lane id=":124.110_0_0" index="0" disallow="all" speed="17.88" length="3.02" width="0.54" shape="258.26,1263.92,36.82 257.26,1261.13,36.80"/>
        <lane id=":124.110_0_1" index="1" disallow="pedestrian tram rail_urban rail rail_electric rail_fast ship" speed="14.53" length="3.02" width="2.74" shape="259.84,1263.39,36.82 258.78,1260.51,36.80"/>
    </edge>
    <edge id=":124.110_2" function="internal">
        <lane id=":124.110_2_0" index="0" disallow="pedestrian tram rail_urban rail rail_electric rail_fast ship" speed="14.53" length="3.25" width="3.31" shape="261.57,1259.38,36.80 262.73,1262.42,36.82"/>
    </edge>
    <edge id=":126.end_0" function="internal">
        <lane id=":126.end_0_0" index="0" disallow="pedestrian tram rail_urban rail rail_electric rail_fast ship" speed="3.70" length="4.64" width="2.85" shape="274.36,1143.31,36.89 274.10,1144.72,36.89 273.52,1145.40,36.89 272.64,1145.34,36.89 271.44,1144.56,36.89"/>
    </edge>
    <edge id=":127.100_0" function="internal">
        <lane id=":127.100_0_0" index="0" disallow="all" speed="11.18" length="2.97" width="0.21" shape="256.66,1033.76,37.29 253.76,1034.31,37.44"/>
        <lane id=":127.100_0_1" index="1" disallow="pedestrian tram rail_urban rail rail_electric rail_fast ship" speed="11.18" length="2.97" width="2.61" shape="256.39,1032.35,37.29 253.46,1032.93,37.44"/>
    </edge>
    <edge id=":127.100_2" function="internal">
        <lane id=":127.100_2_0" index="0" disallow="all" speed="11.18" length="3.11" width="0.21" shape="252.51,1028.62,37.44 253.40,1028.35,37.40 253.99,1028.07,37.37 254.57,1027.80,37.34 255.46,1027.56,37.29"/>
        <lane id=":127.100_2_1" index="1" disallow="pedestrian tram rail_urban rail rail_electric rail_fast ship" speed="11.18" length="3.11" width="3.44" shape="252.87,1030.23,37.44 255.81,1029.35,37.29"/>
    </edge>
    <edge id=":128.107_0" function="internal">
        <lane id=":128.107_0_0" index="0" disallow="all" speed="11.18" length="3.02" width="0.21" shape="129.44,584.45,42.00 127.99,587.09,41.94"/>
        <lane id=":128.107_0_1" index="1" disallow="pedestrian tram rail_urban rail rail_electric rail_fast ship" speed="11.18" length="3.02" width="3.39" shape="127.80,583.60,42.00 126.39,586.26,41.94"/>
    </edge>
    <edge id=":128.107_2" function="internal">
        <lane id=":128.107_2_0" index="0" disallow="all" speed="11.18" length="3.02" width="0.25" shape="122.07,584.03,41.94 123.39,581.32,42.00"/>
        <lane id=":128.107_2_1" index="1" disallow="pedestrian tram rail_urban rail rail_electric rail_fast ship" speed="11.18" length="3.02" width="3.12" shape="123.53,584.78,41.94 124.88,582.09,42.00"/>
    </edge>
    <edge id=":128.21.07_0" function="internal">
        <lane id=":128.21.07_0_0" index="0" disallow="all" speed="11.18" length="3.19" width="0.18" shape="120.73,603.86,41.57 120.46,604.80,41.55 120.61,605.54,41.54 120.75,606.28,41.52 120.47,607.21,41.50"/>
        <lane id=":128.21.07_0_1" index="1" allow="emergency authority" speed="11.18" length="3.19" width="3.86" shape="119.87,603.37,41.57 119.48,604.19,41.55 119.30,604.79,41.54 119.11,605.39,41.52 118.71,606.21,41.50"/>
        <lane id=":128.21.07_0_2" index="2" disallow="pedestrian tram rail_urban rail rail_electric rail_fast ship" speed="11.18" length="3.19" width="2.56" shape="117.70,602.15,41.57 117.22,602.91,41.55 116.82,603.38,41.54 116.42,603.86,41.52 115.93,604.61,41.50"/>
    </edge>
    <edge id=":128.21.07_3" function="internal">
        <lane id=":128.21.07_3_0" index="0" disallow="all" speed="11.18" length="2.98" width="0.21" shape="111.99,602.34,41.50 113.56,599.82,41.57"/>
        <lane id=":128.21.07_3_1" index="1" disallow="pedestrian tram rail_urban rail rail_electric rail_fast ship" speed="11.18" length="2.98" width="3.05" shape="113.45,603.18,41.50 114.98,600.62,41.57"/>
    </edge>
    <edge id=":128.5.94_0" function="internal">
        <lane id=":128.5.94_0_0" index="0" disallow="all" speed="11.18" length="8.13" width="0.21" shape="127.75,587.55,41.93 126.86,589.80,41.88 126.59,591.49,41.85 126.32,593.16,41.81 125.40,595.40,41.76"/>
        <lane id=":128.5.94_0_1" index="1" disallow="pedestrian tram rail_urban rail rail_electric rail_fast ship" speed="11.18" length="8.13" width="3.20" shape="126.15,586.72,41.93 122.32,593.76,41.76"/>
    </edge>
    <edge id=":128.5.94_2" function="internal">
        <lane id=":128.5.94_2_0" index="0" disallow="all" speed="11.18" length="7.96" width="0.21" shape="118.13,591.52,41.76 121.84,584.49,41.93"/>
        <lane id=":128.5.94_2_1" index="1" disallow="pedestrian tram rail_urban rail rail_electric rail_fast ship" speed="11.18" length="7.96" width="3.06" shape="119.57,592.29,41.76 123.29,585.24,41.93"/>
    </edge>
    <edge id=":13.109_0" function="internal">
        <lane id=":13.109_0_0" index="0" disallow="all" speed="17.88" length="3.00" width="0.26" shape="502.31,1245.60,28.35 501.51,1242.72,28.59"/>
        <lane id=":13.109_0_1" index="1" disallow="pedestrian tram rail_urban rail rail_electric rail_fast ship" speed="17.88" length="3.00" width="3.05" shape="503.92,1245.13,28.35 503.09,1242.25,28.59"/>
    </edge>
    <edge id=":13.109_2" function="internal">
        <lane id=":13.109_2_0" index="0" disallow="all" speed="17.88" length="3.01" width="0.18" shape="507.54,1240.95,28.58 508.41,1243.82,28.35"/>
        <lane id=":13.109_2_1" index="1" disallow="pedestrian tram rail_urban rail rail_electric rail_fast ship" speed="17.88" length="3.01" width="3.05" shape="506.01,1241.40,28.59 506.86,1244.27,28.35"/>
    </edge>
    <edge id=":131.11_0" function="internal">
        <lane id=":131.11_0_0" index="0" disallow="pedestrian tram rail_urban rail rail_electric rail_fast ship" speed="11.18" length="3.07" width="3.43" shape="214.29,1301.24,35.49 211.49,1302.50,35.36"/>
    </edge>
    <edge id=":131.11_1" function="internal">
        <lane id=":131.11_1_0" index="0" disallow="all" speed="17.88" length="3.01" width="0.63" shape="209.44,1297.64,35.36 212.28,1296.68,35.49"/>
        <lane id=":131.11_1_1" index="1" disallow="pedestrian tram rail_urban rail rail_electric rail_fast ship" speed="11.18" length="3.01" width="2.99" shape="210.20,1299.43,35.36 213.01,1298.34,35.49"/>
    </edge>
    <edge id=":132_0" function="internal">
        <lane id=":132_0_0" index="0" disallow="pedestrian tram rail_urban rail rail_electric rail_fast ship" speed="17.88" length="17.32" width="3.47" shape="186.74,1318.20,35.04 179.51,1302.47,35.59">
            <param key="origId" value="136_1"/>
        </lane>
    </edge>
    <edge id=":132_1" function="internal">
        <lane id=":132_1_0" index="0" disallow="pedestrian tram rail_urban rail rail_electric rail_fast ship" speed="10.08" length="3.79" width="3.23" shape="186.74,1318.20,35.04 186.64,1314.88,35.04 186.90,1314.49,35.04">
            <param key="origId" value="137_1"/>
        </lane>
    </edge>
    <edge id=":132_6" function="internal">
        <lane id=":132_6_0" index="0" disallow="pedestrian tram rail_urban rail rail_electric rail_fast ship" speed="10.08" length="18.37" width="3.23" shape="186.90,1314.49,35.04 189.02,1311.32,35.04 193.88,1307.52,35.03 201.24,1303.50,35.03">
            <param key="origId" value="137_1"/>
        </lane>
    </edge>
    <edge id=":132_2" function="internal">
        <lane id=":132_2_0" index="0" disallow="pedestrian tram rail_urban rail rail_electric rail_fast ship" speed="8.94" length="17.21" width="3.46" shape="202.69,1306.49,35.03 196.54,1309.72,35.03 192.36,1312.53,35.04 190.14,1314.91,35.04 189.89,1316.87,35.04">
            <param key="origId" value="138_-1"/>
        </lane>
    </edge>
    <edge id=":132_3" function="internal">
        <lane id=":132_3_0" index="0" disallow="pedestrian tram rail_urban rail rail_electric rail_fast ship" speed="10.71" length="26.75" width="3.47" shape="202.69,1306.49,35.03 194.65,1309.42,35.21 188.10,1309.73,35.35 183.06,1307.41,35.46 179.51,1302.47,35.59">
            <param key="origId" value="134_-1"/>
        </lane>
    </edge>
    <edge id=":132_4" function="internal">
        <lane id=":132_4_0" index="0" disallow="pedestrian tram rail_urban rail rail_electric rail_fast ship" speed="9.59" length="21.22" width="3.23" shape="182.64,1301.06,35.59 185.38,1304.73,35.47 189.39,1306.36,35.35 194.68,1305.95,35.21 201.24,1303.50,35.03">
            <param key="origId" value="133_1"/>
        </lane>
    </edge>
    <edge id=":132_5" function="internal">
        <lane id=":132_5_0" index="0" disallow="pedestrian tram rail_urban rail rail_electric rail_fast ship" speed="17.88" length="17.40" width="3.46" shape="182.64,1301.06,35.59 189.89,1316.87,35.04">
            <param key="origId" value="135_1"/>
        </lane>
    </edge>
    <edge id=":139_0" function="internal">
        <lane id=":139_0_0" index="0" disallow="all" speed="17.88" length="28.01" width="0.50" shape="114.13,1372.27,36.47 104.99,1345.77,36.78">
            <param key="origId" value="151_2"/>
        </lane>
        <lane id=":139_0_1" index="1" disallow="pedestrian tram rail_urban rail rail_electric rail_fast ship" speed="17.88" length="28.01" width="3.50" shape="116.02,1371.61,36.47 106.89,1345.16,36.78">
            <param key="origId" value="151_1"/>
        </lane>
    </edge>
    <edge id=":139_2" function="internal">
        <lane id=":139_2_0" index="0" disallow="pedestrian tram rail_urban rail rail_electric rail_fast ship" speed="7.64" length="8.19" width="3.35" shape="116.02,1371.61,36.47 114.59,1365.37,36.47 115.12,1363.66,36.47">
            <param key="origId" value="153_1"/>
        </lane>
    </edge>
    <edge id=":139_8" function="internal">
        <lane id=":139_8_0" index="0" disallow="pedestrian tram rail_urban rail rail_electric rail_fast ship" speed="7.64" length="11.99" width="3.35" shape="115.12,1363.66,36.47 115.68,1361.86,36.48 119.29,1361.08,36.48 125.40,1363.04,36.48">
            <param key="origId" value="153_1"/>
        </lane>
    </edge>
    <edge id=":139_3" function="internal">
        <lane id=":139_3_0" index="0" disallow="pedestrian tram rail_urban rail rail_electric rail_fast ship" speed="5.62" length="10.09" width="3.50" shape="124.00,1366.15,36.48 120.95,1365.18,36.48 119.15,1365.57,36.48 118.61,1367.33,36.47 119.32,1370.45,36.47">
            <param key="origId" value="156_-1"/>
        </lane>
    </edge>
    <edge id=":139_4" function="internal">
        <lane id=":139_4_0" index="0" disallow="pedestrian tram rail_urban rail rail_electric rail_fast ship" speed="16.45" length="27.89" width="3.50" shape="124.00,1366.15,36.48 118.37,1362.79,36.55 113.65,1358.17,36.62 109.82,1352.29,36.70 106.89,1345.16,36.78">
            <param key="origId" value="145_-1"/>
        </lane>
    </edge>
    <edge id=":139_5" function="internal">
        <lane id=":139_5_0" index="0" disallow="all" speed="17.88" length="27.82" width="0.50" shape="112.13,1343.49,36.78 121.20,1369.78,36.47">
            <param key="origId" value="152_-2"/>
        </lane>
    </edge>
    <edge id=":139_6" function="internal">
        <lane id=":139_6_0" index="0" disallow="pedestrian tram rail_urban rail rail_electric rail_fast ship" speed="15.60" length="12.81" width="3.35" shape="110.23,1344.10,36.78 112.87,1350.58,36.70 116.00,1355.48,36.63">
            <param key="origId" value="146_-1"/>
        </lane>
    </edge>
    <edge id=":139_7" function="internal">
        <lane id=":139_7_0" index="0" disallow="pedestrian tram rail_urban rail rail_electric rail_fast ship" speed="17.88" length="27.87" width="3.50" shape="110.23,1344.10,36.78 119.32,1370.45,36.47">
            <param key="origId" value="152_-1"/>
        </lane>
    </edge>
    <edge id=":139_9" function="internal">
        <lane id=":139_9_0" index="0" disallow="pedestrian tram rail_urban rail rail_electric rail_fast ship" speed="15.60" length="12.18" width="3.35" shape="116.00,1355.48,36.63 116.28,1355.90,36.62 120.45,1360.05,36.55 125.40,1363.04,36.48">
            <param key="origId" value="146_-1"/>
        </lane>
    </edge>
    <edge id=":14.125_0" function="internal">
        <lane id=":14.125_0_0" index="0" disallow="pedestrian tram rail_urban rail rail_electric rail_fast ship" speed="11.18" length="2.92" width="2.82" shape="277.92,1189.48,37.70 275.20,1190.55,37.68"/>
    </edge>
    <edge id=":14.125_1" function="internal">
        <lane id=":14.125_1_0" index="0" disallow="pedestrian tram rail_urban rail rail_electric rail_fast ship" speed="11.18" length="2.92" width="3.50" shape="274.00,1187.65,37.68 276.69,1186.53,37.70"/>
    </edge>
    <edge id=":157_0" function="internal">
        <lane id=":157_0_0" index="0" disallow="pedestrian tram rail_urban rail rail_electric rail_fast ship" speed="8.57" length="14.88" width="2.74" shape="177.14,1297.22,35.65 174.94,1293.49,35.71 172.25,1291.18,35.76 169.07,1290.26,35.81 165.41,1290.76,35.86">
            <param key="origId" value="166_-1"/>
        </lane>
    </edge>
    <edge id=":157_1" function="internal">
        <lane id=":157_1_0" index="0" disallow="pedestrian tram rail_urban rail rail_electric rail_fast ship" speed="17.88" length="22.84" width="3.50" shape="177.14,1297.22,35.65 175.78,1293.20,35.61 174.67,1288.05,35.55 173.70,1281.90,35.48 172.74,1274.87,35.41">
            <param key="origId" value="172_-1"/>
        </lane>
    </edge>
    <edge id=":157_2" function="internal">
        <lane id=":157_2_0" index="0" disallow="pedestrian tram rail_urban rail rail_electric rail_fast ship" speed="17.88" length="21.86" width="3.40" shape="176.21,1274.41,35.41 177.11,1281.30,35.49 177.97,1287.13,35.55 178.98,1291.95,35.61 180.28,1295.83,35.65">
            <param key="origId" value="173_1"/>
        </lane>
    </edge>
    <edge id=":157_3" function="internal">
        <lane id=":157_3_0" index="0" disallow="pedestrian tram rail_urban rail rail_electric rail_fast ship" speed="10.44" length="7.59" width="2.74" shape="176.21,1274.41,35.41 176.15,1280.13,35.53 175.46,1281.87,35.57">
            <param key="origId" value="158_1"/>
        </lane>
    </edge>
    <edge id=":157_6" function="internal">
        <lane id=":157_6_0" index="0" disallow="pedestrian tram rail_urban rail rail_electric rail_fast ship" speed="10.44" length="14.02" width="2.74" shape="175.46,1281.87,35.57 174.33,1284.76,35.63 170.75,1288.30,35.74 165.41,1290.76,35.86">
            <param key="origId" value="158_1"/>
        </lane>
    </edge>
    <edge id=":157_4" function="internal">
        <lane id=":157_4_0" index="0" disallow="pedestrian tram rail_urban rail rail_electric rail_fast ship" speed="9.29" length="16.92" width="3.50" shape="164.50,1287.80,35.86 168.60,1285.89,35.74 171.34,1283.09,35.64 172.72,1279.42,35.53 172.74,1274.87,35.41">
            <param key="origId" value="162_1"/>
        </lane>
    </edge>
    <edge id=":157_5" function="internal">
        <lane id=":157_5_0" index="0" disallow="pedestrian tram rail_urban rail rail_electric rail_fast ship" speed="9.79" length="19.70" width="3.40" shape="164.50,1287.80,35.86 169.52,1287.06,35.81 173.82,1288.15,35.76 177.41,1291.07,35.71 180.28,1295.83,35.65">
            <param key="origId" value="167_1"/>
        </lane>
    </edge>
    <edge id=":174_0" function="internal">
        <lane id=":174_0_0" index="0" disallow="all" speed="17.88" length="34.90" width="0.22" shape="101.03,1333.57,37.19 98.42,1325.71,37.54 95.58,1316.94,37.92 92.98,1308.11,38.30 91.06,1300.07,38.65">
            <param key="origId" value="179_2"/>
        </lane>
        <lane id=":174_0_1" index="1" disallow="pedestrian tram rail_urban rail rail_electric rail_fast ship" speed="17.88" length="34.90" width="3.00" shape="102.93,1332.95,37.19 100.27,1325.14,37.54 97.32,1316.48,37.92 94.61,1307.76,38.30 92.64,1299.77,38.65">
            <param key="origId" value="179_1"/>
        </lane>
    </edge>
    <edge id=":174_2" function="internal">
        <lane id=":174_2_0" index="0" disallow="pedestrian tram rail_urban rail rail_electric rail_fast ship" speed="11.81" length="9.71" width="3.50" shape="102.93,1332.95,37.19 101.25,1324.12,37.48 101.38,1323.41,37.51">
            <param key="origId" value="191_1"/>
        </lane>
    </edge>
    <edge id=":174_10" function="internal">
        <lane id=":174_10_0" index="0" disallow="pedestrian tram rail_urban rail rail_electric rail_fast ship" speed="11.81" length="21.93" width="3.50" shape="101.38,1323.41,37.51 102.57,1316.94,37.72 106.90,1311.40,37.95 114.23,1307.50,38.22">
            <param key="origId" value="191_1"/>
        </lane>
    </edge>
    <edge id=":174_3" function="internal">
        <lane id=":174_3_0" index="0" disallow="all" speed="10.08" length="23.71" width="0.50" shape="115.71,1311.74,38.22 110.54,1314.60,37.96 107.55,1318.80,37.74 106.76,1324.34,37.50 108.15,1331.23,37.19">
            <param key="origId" value="190_2"/>
        </lane>
    </edge>
    <edge id=":174_4" function="internal">
        <lane id=":174_4_0" index="0" disallow="all" speed="11.20" length="32.97" width="0.22" shape="115.71,1311.74,38.22 106.23,1314.11,38.35 99.10,1313.36,38.44 94.11,1308.87,38.53 91.06,1300.07,38.65">
            <param key="origId" value="185_2"/>
        </lane>
    </edge>
    <edge id=":174_5" function="internal">
        <lane id=":174_5_0" index="0" disallow="pedestrian tram rail_urban rail rail_electric rail_fast ship" speed="10.77" length="26.48" width="3.50" shape="115.22,1310.33,38.22 109.26,1313.56,37.96 105.77,1318.22,37.73 104.77,1324.32,37.49 106.25,1331.85,37.19">
            <param key="origId" value="190_1"/>
        </lane>
    </edge>
    <edge id=":174_6" function="internal">
        <lane id=":174_6_0" index="0" disallow="pedestrian tram rail_urban rail rail_electric rail_fast ship" speed="10.84" length="30.13" width="3.00" shape="115.22,1310.33,38.22 106.54,1312.51,38.35 100.01,1311.86,38.44 95.44,1307.79,38.53 92.64,1299.77,38.65">
            <param key="origId" value="185_1"/>
        </lane>
    </edge>
    <edge id=":174_7" function="internal">
        <lane id=":174_7_0" index="0" disallow="all" speed="17.88" length="34.24" width="0.50" shape="96.99,1298.92,38.65 99.09,1306.78,38.30 102.11,1315.19,37.92 105.35,1323.55,37.54 108.15,1331.23,37.19">
            <param key="origId" value="180_-2"/>
        </lane>
    </edge>
    <edge id=":174_8" function="internal">
        <lane id=":174_8_0" index="0" disallow="pedestrian tram rail_urban rail rail_electric rail_fast ship" speed="9.76" length="7.34" width="3.50" shape="95.45,1299.22,38.65 97.63,1304.95,38.54 98.55,1305.73,38.52">
            <param key="origId" value="186_-1"/>
        </lane>
    </edge>
    <edge id=":174_9" function="internal">
        <lane id=":174_9_0" index="0" disallow="pedestrian tram rail_urban rail rail_electric rail_fast ship" speed="17.88" length="34.43" width="3.50" shape="95.45,1299.22,38.65 97.50,1307.13,38.30 100.39,1315.66,37.92 103.51,1324.13,37.54 106.25,1331.85,37.19">
            <param key="origId" value="180_-1"/>
        </lane>
    </edge>
    <edge id=":174_11" function="internal">
        <lane id=":174_11_0" index="0" disallow="pedestrian tram rail_urban rail rail_electric rail_fast ship" speed="9.76" length="16.84" width="3.50" shape="98.55,1305.73,38.52 101.49,1308.23,38.45 107.02,1309.08,38.35 114.23,1307.50,38.22">
            <param key="origId" value="186_-1"/>
        </lane>
    </edge>
    <edge id=":18.1_0" function="internal">
        <lane id=":18.1_0_0" index="0" disallow="all" speed="14.53" length="2.96" width="0.50" shape="152.76,1296.24,36.43 151.92,1296.45,36.47 151.32,1296.53,36.50 150.73,1296.62,36.53 149.90,1296.87,36.57"/>
        <lane id=":18.1_0_1" index="1" disallow="pedestrian tram rail_urban rail rail_electric rail_fast ship" speed="14.53" length="2.96" width="2.06" shape="152.33,1294.87,36.43 149.46,1295.66,36.57"/>
    </edge>
    <edge id=":18.1_2" function="internal">
        <lane id=":18.1_2_0" index="0" disallow="all" speed="14.53" length="3.10" width="0.31" shape="147.91,1291.31,36.57 150.86,1290.28,36.43"/>
        <lane id=":18.1_2_1" index="1" disallow="pedestrian tram rail_urban rail rail_electric rail_fast ship" speed="14.53" length="3.10" width="3.48" shape="148.53,1293.05,36.57 151.44,1292.08,36.43"/>
    </edge>
    <edge id=":192_0" function="internal">
        <lane id=":192_0_0" index="0" disallow="pedestrian tram rail_urban rail rail_electric rail_fast ship" speed="11.18" length="34.74" width="2.90" shape="175.47,475.48,42.07 173.40,469.72,42.08 171.42,460.52,42.08 170.22,450.27,42.09 170.46,441.39,42.10">
            <param key="origId" value="194_-1"/>
        </lane>
    </edge>
    <edge id=":192_1" function="internal">
        <lane id=":192_1_0" index="0" disallow="pedestrian tram rail_urban rail rail_electric rail_fast ship" speed="11.18" length="32.24" width="2.77" shape="173.46,441.87,42.10 173.07,449.68,42.09 174.16,457.87,42.09 176.49,465.84,42.08 179.82,472.96,42.07">
            <param key="origId" value="193_-1"/>
        </lane>
    </edge>
    <edge id=":192_2" function="internal">
        <lane id=":192_2_0" index="0" disallow="pedestrian tram rail_urban rail rail_electric rail_fast ship" speed="11.18" length="35.99" width="3.40" shape="173.46,441.87,42.10 166.58,477.20,42.30">
            <param key="origId" value="196_-1"/>
        </lane>
    </edge>
    <edge id=":192_3" function="internal">
        <lane id=":192_3_0" index="0" disallow="pedestrian tram rail_urban rail rail_electric rail_fast ship" speed="11.18" length="35.77" width="2.90" shape="163.42,476.46,42.30 170.46,441.39,42.10">
            <param key="origId" value="195_1"/>
        </lane>
    </edge>
    <edge id=":197_0" function="internal">
        <lane id=":197_0_0" index="0" disallow="pedestrian tram rail_urban rail rail_electric rail_fast ship" speed="17.88" length="18.72" width="3.47" shape="196.32,1359.34,35.02 195.96,1378.06,35.16">
            <param key="origId" value="225_-1"/>
        </lane>
    </edge>